<?xml version="1.0" encoding="UTF-8"?>

<!-- generated on Tue Feb 25 16:02:33 2020 by Eclipse SUMO netconvert Version 1.5.0
<configuration xmlns:xsi="http://www.w3.org/2001/XMLSchema-instance" xsi:noNamespaceSchemaLocation="http://sumo.dlr.de/xsd/netconvertConfiguration.xsd">

    <input>
        <node-files value="pcd-test-1.nod.xml"/>
        <edge-files value="pcd-test-1.edg.xml"/>
    </input>

    <output>
        <output-file value="pcd-test-1.net.xml"/>
    </output>

    <report>
        <aggregate-warnings value="5"/>
    </report>

</configuration>
-->

<net version="1.3" junctionCornerDetail="5" limitTurnSpeed="5.50" xmlns:xsi="http://www.w3.org/2001/XMLSchema-instance" xsi:noNamespaceSchemaLocation="http://sumo.dlr.de/xsd/net_file.xsd">

    <location netOffset="0.00,-200.00" convBoundary="0.00,0.00,2000.00,0.00" origBoundary="0.00,200.00,2000.00,200.00" projParameter="!"/>

    <edge id="0to1" from="0" to="1" priority="-1">
        <lane id="0to1_0" index="0" speed="13.89" length="2000.00" shape="0.00,-1.60 2000.00,-1.60"/>
    </edge>

    <junction id="0" type="dead_end" x="0.00" y="0.00" incLanes="" intLanes="" shape="0.00,0.00 0.00,-3.20"/>
    <junction id="1" type="dead_end" x="2000.00" y="0.00" incLanes="0to1_0" intLanes="" shape="2000.00,-3.20 2000.00,0.00"/>

</net>
