<routes>
    <vType accel="1.0" decel="5.0" id="Car" length="2.0" maxSpeed="100.0" sigma="0.0" />
    <vType accel="1.0" decel="5.0" id="SlightlyFasterCar" length="2.0" maxSpeed="100.0" sigma="0.0" />
    <route id="route0" edges="0to1"/>
    <vehicle depart="2" id="veh0" route="route0" type="Car" />
    <vehicle depart="4" id="veh1" route="route0" type="Car" />
    <vehicle depart="7" id="veh2" route="route0" type="Car" />
    <vehicle depart="10" id="veh3" route="route0" type="Car" />
    <vehicle depart="13" id="veh4" route="route0" type="Car" />
</routes>
