<?xml version="1.0" encoding="UTF-8"?>

<!-- generated on Tue Feb  4 10:24:27 2020 by Eclipse SUMO netconvert Version 1.4.0
<configuration xmlns:xsi="http://www.w3.org/2001/XMLSchema-instance" xsi:noNamespaceSchemaLocation="http://sumo.dlr.de/xsd/netconvertConfiguration.xsd">

    <input>
        <type-files value="/usr/share/sumo/data/typemap/osmNetconvert.typ.xml"/>
        <osm-files value="osm_bbox.osm.xml"/>
    </input>

    <output>
        <output-file value="osm.net.xml"/>
        <output.street-names value="true"/>
        <output.original-names value="true"/>
    </output>

    <projection>
        <proj.utm value="true"/>
    </projection>

    <processing>
        <geometry.remove value="true"/>
        <roundabouts.guess value="true"/>
        <lefthand value="true"/>
    </processing>

    <tls_building>
        <tls.discard-simple value="true"/>
        <tls.join value="true"/>
        <tls.guess-signals value="true"/>
        <tls.default-type value="actuated"/>
    </tls_building>

    <ramp_guessing>
        <ramps.guess value="true"/>
    </ramp_guessing>

    <junctions>
        <junctions.join value="true"/>
        <junctions.corner-detail value="5"/>
    </junctions>

    <report>
        <verbose value="true"/>
        <aggregate-warnings value="5"/>
    </report>

</configuration>
-->

<net version="1.3" junctionCornerDetail="5" lefthand="true" limitTurnSpeed="5.50" xmlns:xsi="http://www.w3.org/2001/XMLSchema-instance" xsi:noNamespaceSchemaLocation="http://sumo.dlr.de/xsd/net_file.xsd">

    <location netOffset="-695455.65,-5890753.99" convBoundary="0.00,-0.00,1228.23,1406.21" origBoundary="-6.078184,53.129911,-6.059280,53.142632" projParameter="+proj=utm +zone=29 +ellps=WGS84 +datum=WGS84 +units=m +no_defs"/>

    <type id="highway.bridleway" priority="1" numLanes="1" speed="2.78" allow="pedestrian" oneway="1" width="2.00"/>
    <type id="highway.bus_guideway" priority="1" numLanes="1" speed="27.78" allow="bus" oneway="1"/>
    <type id="highway.cycleway" priority="1" numLanes="1" speed="8.33" allow="bicycle" oneway="0" width="1.00"/>
    <type id="highway.footway" priority="1" numLanes="1" speed="2.78" allow="pedestrian" oneway="1" width="2.00"/>
    <type id="highway.ford" priority="1" numLanes="1" speed="2.78" allow="army" oneway="0"/>
    <type id="highway.living_street" priority="2" numLanes="1" speed="2.78" disallow="tram rail_urban rail rail_electric rail_fast ship" oneway="0"/>
    <type id="highway.motorway" priority="14" numLanes="2" speed="39.44" allow="private emergency authority army vip passenger hov taxi bus coach delivery truck trailer motorcycle evehicle custom1 custom2" oneway="1"/>
    <type id="highway.motorway_link" priority="9" numLanes="1" speed="22.22" allow="private emergency authority army vip passenger hov taxi bus coach delivery truck trailer motorcycle evehicle custom1 custom2" oneway="1"/>
    <type id="highway.path" priority="1" numLanes="1" speed="2.78" allow="pedestrian bicycle" oneway="1" width="2.00"/>
    <type id="highway.pedestrian" priority="1" numLanes="1" speed="2.78" allow="pedestrian" oneway="1" width="2.00"/>
    <type id="highway.primary" priority="12" numLanes="2" speed="27.78" disallow="tram rail_urban rail rail_electric rail_fast ship" oneway="0"/>
    <type id="highway.primary_link" priority="7" numLanes="1" speed="22.22" disallow="tram rail_urban rail rail_electric rail_fast ship" oneway="0"/>
    <type id="highway.raceway" priority="15" numLanes="2" speed="83.33" allow="vip" oneway="0"/>
    <type id="highway.residential" priority="3" numLanes="1" speed="13.89" disallow="tram rail_urban rail rail_electric rail_fast ship" oneway="0"/>
    <type id="highway.secondary" priority="11" numLanes="1" speed="27.78" disallow="tram rail_urban rail rail_electric rail_fast ship" oneway="0"/>
    <type id="highway.secondary_link" priority="6" numLanes="1" speed="22.22" disallow="tram rail_urban rail rail_electric rail_fast ship" oneway="0"/>
    <type id="highway.service" priority="1" numLanes="1" speed="5.56" allow="pedestrian delivery bicycle" oneway="0"/>
    <type id="highway.stairs" priority="1" numLanes="1" speed="1.39" allow="pedestrian" oneway="1" width="2.00"/>
    <type id="highway.step" priority="1" numLanes="1" speed="1.39" allow="pedestrian" oneway="1" width="2.00"/>
    <type id="highway.steps" priority="1" numLanes="1" speed="1.39" allow="pedestrian" oneway="1" width="2.00"/>
    <type id="highway.tertiary" priority="10" numLanes="1" speed="22.22" disallow="tram rail_urban rail rail_electric rail_fast ship" oneway="0"/>
    <type id="highway.tertiary_link" priority="5" numLanes="1" speed="22.22" disallow="tram rail_urban rail rail_electric rail_fast ship" oneway="0"/>
    <type id="highway.track" priority="1" numLanes="1" speed="5.56" disallow="tram rail_urban rail rail_electric rail_fast ship" oneway="0"/>
    <type id="highway.trunk" priority="13" numLanes="2" speed="27.78" disallow="pedestrian bicycle tram rail_urban rail rail_electric rail_fast ship" oneway="0"/>
    <type id="highway.trunk_link" priority="8" numLanes="1" speed="22.22" disallow="pedestrian bicycle tram rail_urban rail rail_electric rail_fast ship" oneway="0"/>
    <type id="highway.unclassified" priority="4" numLanes="1" speed="13.89" disallow="tram rail_urban rail rail_electric rail_fast ship" oneway="0"/>
    <type id="highway.unsurfaced" priority="1" numLanes="1" speed="8.33" disallow="tram rail_urban rail rail_electric rail_fast ship" oneway="0"/>
    <type id="railway.highspeed" priority="21" numLanes="1" speed="69.44" allow="rail_fast" oneway="1"/>
    <type id="railway.light_rail" priority="19" numLanes="1" speed="27.78" allow="rail_urban" oneway="1"/>
    <type id="railway.preserved" priority="16" numLanes="1" speed="27.78" allow="rail" oneway="1"/>
    <type id="railway.rail" priority="20" numLanes="1" speed="44.44" allow="rail" oneway="1"/>
    <type id="railway.subway" priority="18" numLanes="1" speed="27.78" allow="rail_urban" oneway="1"/>
    <type id="railway.tram" priority="17" numLanes="1" speed="13.89" allow="tram" oneway="1"/>

    <edge id=":1289416655_0" function="internal">
        <lane id=":1289416655_0_0" index="0" allow="pedestrian delivery bicycle" speed="3.65" length="4.67" shape="739.89,425.65 738.67,426.43 738.26,427.22 738.64,428.03 739.83,428.85"/>
    </edge>
    <edge id=":1289416785_0" function="internal">
        <lane id=":1289416785_0_0" index="0" allow="pedestrian delivery bicycle" speed="5.08" length="5.11" shape="760.03,439.84 759.74,441.19 759.08,442.12 758.04,442.64 756.61,442.74"/>
    </edge>
    <edge id=":1289416785_1" function="internal">
        <lane id=":1289416785_1_0" index="0" allow="pedestrian delivery bicycle" speed="5.56" length="9.48" shape="760.03,439.84 759.22,449.29"/>
    </edge>
    <edge id=":1289416785_2" function="internal">
        <lane id=":1289416785_2_0" index="0" allow="pedestrian delivery bicycle" speed="5.56" length="10.13" shape="760.03,439.84 760.25,442.62 761.29,444.68 763.16,446.00 765.84,446.61"/>
    </edge>
    <edge id=":1289416785_3" function="internal">
        <lane id=":1289416785_3_0" index="0" allow="pedestrian delivery bicycle" speed="3.65" length="4.67" shape="760.03,439.84 760.75,441.09 761.53,441.54 762.35,441.18 763.22,440.03"/>
    </edge>
    <edge id=":1289416785_4" function="internal">
        <lane id=":1289416785_4_0" index="0" allow="pedestrian delivery bicycle" speed="5.09" length="5.04" shape="766.09,443.42 764.77,443.12 763.85,442.45 763.33,441.42 763.22,440.03"/>
    </edge>
    <edge id=":1289416785_5" function="internal">
        <lane id=":1289416785_5_0" index="0" allow="pedestrian delivery bicycle" speed="5.56" length="9.51" shape="766.09,443.42 756.61,442.74"/>
    </edge>
    <edge id=":1289416785_6" function="internal">
        <lane id=":1289416785_6_0" index="0" allow="pedestrian delivery bicycle" speed="5.56" length="10.24" shape="766.09,443.42 763.35,443.61 761.29,444.65 759.91,446.54 759.22,449.29"/>
    </edge>
    <edge id=":1289416785_7" function="internal">
        <lane id=":1289416785_7_0" index="0" allow="pedestrian delivery bicycle" speed="3.65" length="4.67" shape="766.09,443.42 764.83,444.12 764.37,444.89 764.71,445.72 765.84,446.61"/>
    </edge>
    <edge id=":1289416785_8" function="internal">
        <lane id=":1289416785_8_0" index="0" allow="pedestrian delivery bicycle" speed="5.17" length="5.19" shape="762.40,449.65 762.75,448.23 763.44,447.25 764.47,446.71 765.84,446.61"/>
    </edge>
    <edge id=":1289416785_9" function="internal">
        <lane id=":1289416785_9_0" index="0" allow="pedestrian delivery bicycle" speed="5.56" length="9.65" shape="762.40,449.65 763.22,440.03"/>
    </edge>
    <edge id=":1289416785_10" function="internal">
        <lane id=":1289416785_10_0" index="0" allow="pedestrian delivery bicycle" speed="5.56" length="10.39" shape="762.40,449.65 762.31,446.78 761.31,444.68 759.41,443.33 756.61,442.74"/>
    </edge>
    <edge id=":1289416785_11" function="internal">
        <lane id=":1289416785_11_0" index="0" allow="pedestrian delivery bicycle" speed="3.65" length="4.67" shape="762.40,449.65 761.74,448.36 760.99,447.88 760.15,448.19 759.22,449.29"/>
    </edge>
    <edge id=":1289416785_12" function="internal">
        <lane id=":1289416785_12_0" index="0" allow="pedestrian delivery bicycle" speed="4.99" length="5.05" shape="756.40,445.93 757.77,446.22 758.69,446.88 759.18,447.90 759.22,449.29"/>
    </edge>
    <edge id=":1289416785_13" function="internal">
        <lane id=":1289416785_13_0" index="0" allow="pedestrian delivery bicycle" speed="5.56" length="9.46" shape="756.40,445.93 765.84,446.61"/>
    </edge>
    <edge id=":1289416785_14" function="internal">
        <lane id=":1289416785_14_0" index="0" allow="pedestrian delivery bicycle" speed="5.56" length="10.29" shape="756.40,445.93 759.25,445.72 761.33,444.67 762.65,442.77 763.22,440.03"/>
    </edge>
    <edge id=":1289416785_15" function="internal">
        <lane id=":1289416785_15_0" index="0" allow="pedestrian delivery bicycle" speed="3.65" length="4.67" shape="756.40,445.93 757.65,445.21 758.10,444.44 757.76,443.61 756.61,442.74"/>
    </edge>
    <edge id=":1289417009_0" function="internal">
        <lane id=":1289417009_0_0" index="0" allow="pedestrian delivery bicycle" speed="3.65" length="4.67" shape="796.96,433.70 798.25,433.06 798.75,432.32 798.45,431.48 797.37,430.53"/>
    </edge>
    <edge id=":1289417099_0" function="internal">
        <lane id=":1289417099_0_0" index="0" allow="pedestrian delivery bicycle" speed="5.56" length="7.51" shape="757.12,475.70 756.73,476.92 755.71,478.14 754.07,479.37 751.79,480.59"/>
    </edge>
    <edge id=":1289417099_1" function="internal">
        <lane id=":1289417099_1_0" index="0" allow="pedestrian delivery bicycle" speed="5.56" length="10.13" shape="757.12,475.70 756.77,485.82"/>
    </edge>
    <edge id=":1289417099_2" function="internal">
        <lane id=":1289417099_2_0" index="0" allow="pedestrian delivery bicycle" speed="3.65" length="4.67" shape="757.12,475.70 757.85,476.94 758.62,477.39 759.44,477.04 760.31,475.89"/>
    </edge>
    <edge id=":1289417099_3" function="internal">
        <lane id=":1289417099_3_0" index="0" allow="pedestrian delivery bicycle" speed="5.56" length="10.00" shape="759.97,485.89 760.31,475.89"/>
    </edge>
    <edge id=":1289417099_4" function="internal">
        <lane id=":1289417099_4_0" index="0" allow="pedestrian delivery bicycle" speed="5.56" length="12.91" shape="759.97,485.89 759.53,482.08 758.02,479.93 755.44,479.43 751.79,480.59"/>
    </edge>
    <edge id=":1289417099_5" function="internal">
        <lane id=":1289417099_5_0" index="0" allow="pedestrian delivery bicycle" speed="3.65" length="4.67" shape="759.97,485.89 759.20,484.67 758.40,484.25 757.60,484.64 756.77,485.82"/>
    </edge>
    <edge id=":1289417099_6" function="internal">
        <lane id=":1289417099_6_0" index="0" allow="pedestrian delivery bicycle" speed="4.70" length="5.70" shape="753.16,483.48 754.77,482.97 755.91,483.19 756.58,484.14 756.77,485.82"/>
    </edge>
    <edge id=":1289417099_7" function="internal">
        <lane id=":1289417099_7_0" index="0" allow="pedestrian delivery bicycle" speed="5.56" length="10.90" shape="753.16,483.48 756.19,481.78 758.39,479.95 759.77,477.99 760.31,475.89"/>
    </edge>
    <edge id=":1289417099_8" function="internal">
        <lane id=":1289417099_8_0" index="0" allow="pedestrian delivery bicycle" speed="3.65" length="4.67" shape="753.16,483.48 753.90,482.25 753.92,481.35 753.22,480.80 751.79,480.59"/>
    </edge>
    <edge id=":1289417195_0" function="internal">
        <lane id=":1289417195_0_0" index="0" allow="pedestrian delivery bicycle" speed="3.65" length="4.67" shape="779.85,504.34 779.17,503.07 778.41,502.60 777.57,502.92 776.66,504.04"/>
    </edge>
    <edge id=":1289417738_0" function="internal">
        <lane id=":1289417738_0_0" index="0" allow="pedestrian delivery bicycle" speed="3.65" length="4.67" shape="794.94,448.91 796.20,448.21 796.66,447.44 796.32,446.61 795.19,445.72"/>
    </edge>
    <edge id=":1289418588_0" function="internal">
        <lane id=":1289418588_0_0" index="0" allow="pedestrian delivery bicycle" speed="5.56" length="9.94" shape="767.44,426.68 764.52,426.31 762.51,426.11 760.49,426.02 757.54,425.96"/>
    </edge>
    <edge id=":1289418588_1" function="internal">
        <lane id=":1289418588_1_0" index="0" allow="pedestrian delivery bicycle" speed="5.56" length="10.51" shape="767.44,426.68 764.54,426.72 762.40,427.70 761.05,429.62 760.46,432.46"/>
    </edge>
    <edge id=":1289418588_2" function="internal">
        <lane id=":1289418588_2_0" index="0" allow="pedestrian delivery bicycle" speed="3.65" length="4.67" shape="767.44,426.68 766.15,427.32 765.65,428.06 765.95,428.91 767.03,429.85"/>
    </edge>
    <edge id=":1289418588_3" function="internal">
        <lane id=":1289418588_3_0" index="0" allow="pedestrian delivery bicycle" speed="4.97" length="5.08" shape="763.66,432.65 763.94,431.27 764.60,430.35 765.63,429.88 767.03,429.85"/>
    </edge>
    <edge id=":1289418588_4" function="internal">
        <lane id=":1289418588_4_0" index="0" allow="pedestrian delivery bicycle" speed="5.56" length="10.44" shape="763.66,432.65 763.42,429.76 762.32,427.69 760.36,426.42 757.54,425.96"/>
    </edge>
    <edge id=":1289418588_5" function="internal">
        <lane id=":1289418588_5_0" index="0" allow="pedestrian delivery bicycle" speed="3.65" length="4.67" shape="763.66,432.65 762.93,431.41 762.15,430.96 761.33,431.31 760.46,432.46"/>
    </edge>
    <edge id=":1289418588_6" function="internal">
        <lane id=":1289418588_6_0" index="0" allow="pedestrian delivery bicycle" speed="5.03" length="5.12" shape="757.49,429.15 758.86,429.38 759.81,430.01 760.35,431.04 760.46,432.46"/>
    </edge>
    <edge id=":1289418588_7" function="internal">
        <lane id=":1289418588_7_0" index="0" allow="pedestrian delivery bicycle" speed="5.56" length="9.58" shape="757.49,429.15 760.33,429.21 762.28,429.31 764.21,429.50 767.03,429.85"/>
    </edge>
    <edge id=":1289418588_8" function="internal">
        <lane id=":1289418588_8_0" index="0" allow="pedestrian delivery bicycle" speed="3.65" length="4.67" shape="757.49,429.15 758.70,428.38 759.11,427.58 758.73,426.78 757.54,425.96"/>
    </edge>
    <edge id=":1289418969_0" function="internal">
        <lane id=":1289418969_0_0" index="0" allow="pedestrian delivery bicycle" speed="3.65" length="4.67" shape="739.46,441.62 738.21,442.34 737.76,443.11 738.11,443.93 739.25,444.81"/>
    </edge>
    <edge id=":132587805_0" function="internal">
        <lane id=":132587805_0_0" index="0" disallow="tram rail_urban rail rail_electric rail_fast ship" speed="9.16" length="8.32" shape="1002.58,510.22 1004.45,508.07 1006.14,506.52 1007.65,505.55 1008.98,505.19"/>
    </edge>
    <edge id=":132587805_1" function="internal">
        <lane id=":132587805_1_0" index="0" disallow="tram rail_urban rail rail_electric rail_fast ship" speed="10.46" length="10.98" shape="1000.08,508.22 1002.43,505.58 1004.66,503.66 1006.78,502.47 1008.79,501.99"/>
    </edge>
    <edge id=":132587805_2" function="internal">
        <lane id=":132587805_2_0" index="0" disallow="tram rail_urban rail rail_electric rail_fast ship" speed="13.89" length="10.22" shape="998.67,503.47 1001.54,504.71 1003.64,505.27 1005.83,505.36 1008.98,505.19"/>
        <lane id=":132587805_2_1" index="1" disallow="tram rail_urban rail rail_electric rail_fast ship" speed="13.89" length="10.22" shape="999.34,500.25 1001.98,501.42 1003.90,501.99 1005.91,502.12 1008.79,501.99"/>
    </edge>
    <edge id=":132587809_0" function="internal">
        <lane id=":132587809_0_0" index="0" disallow="tram rail_urban rail rail_electric rail_fast ship" speed="8.53" length="7.67" shape="1033.96,481.67 1031.58,480.49 1029.79,479.33 1028.60,478.21 1028.00,477.11"/>
    </edge>
    <edge id=":132587809_1" function="internal">
        <lane id=":132587809_1_0" index="0" allow="pedestrian delivery bicycle" speed="4.92" length="5.36" shape="1028.82,486.96 1029.40,485.43 1030.23,484.53 1031.31,484.25 1032.65,484.59"/>
    </edge>
    <edge id=":132587809_2" function="internal">
        <lane id=":132587809_2_0" index="0" disallow="tram rail_urban rail rail_electric rail_fast ship" speed="13.89" length="9.68" shape="1028.82,486.96 1029.37,484.07 1029.35,482.02 1028.86,479.98 1028.00,477.11"/>
        <lane id=":132587809_2_1" index="1" disallow="tram rail_urban rail rail_electric rail_fast ship" speed="13.89" length="9.68" shape="1025.50,487.05 1026.04,484.38 1026.08,482.50 1025.68,480.62 1024.92,477.97"/>
    </edge>
    <edge id=":132587812_0" function="internal">
        <lane id=":132587812_0_0" index="0" disallow="tram rail_urban rail rail_electric rail_fast ship" speed="12.13" length="9.61" shape="1026.77,474.15 1025.79,471.61 1025.79,469.69 1026.33,467.68 1026.95,464.86"/>
    </edge>
    <edge id=":132587812_1" function="internal">
        <lane id=":132587812_1_0" index="0" disallow="tram rail_urban rail rail_electric rail_fast ship" speed="12.68" length="10.53" shape="1026.77,474.15 1025.20,471.43 1024.11,469.47 1023.60,467.41 1023.79,464.39"/>
    </edge>
    <edge id=":132587812_2" function="internal">
        <lane id=":132587812_2_0" index="0" disallow="tram rail_urban rail rail_electric rail_fast ship" speed="13.89" length="10.79" shape="1026.77,474.15 1025.21,471.23 1023.92,469.32 1022.22,467.78 1019.48,465.97"/>
        <lane id=":132587812_2_1" index="1" disallow="tram rail_urban rail rail_electric rail_fast ship" speed="13.89" length="10.79" shape="1023.94,475.64 1022.47,472.96 1021.21,471.24 1019.59,469.87 1017.01,468.21"/>
    </edge>
    <edge id=":132587816_0" function="internal">
        <lane id=":132587816_0_0" index="0" disallow="tram rail_urban rail rail_electric rail_fast ship" speed="13.89" length="12.56" shape="1007.82,456.26 1005.34,458.85 1003.70,460.74 1001.87,462.35 998.79,464.07"/>
        <lane id=":132587816_0_1" index="1" disallow="tram rail_urban rail rail_electric rail_fast ship" speed="13.89" length="12.56" shape="1010.02,458.58 1007.32,461.38 1005.52,463.40 1003.51,465.11 1000.16,466.96"/>
    </edge>
    <edge id=":132587816_2" function="internal">
        <lane id=":132587816_2_0" index="0" disallow="tram rail_urban rail rail_electric rail_fast ship" speed="13.54" length="13.16" shape="1011.83,462.85 1007.94,462.00 1005.14,461.83 1002.43,462.48 998.79,464.07"/>
        <lane id=":132587816_2_1" index="1" disallow="tram rail_urban rail rail_electric rail_fast ship" speed="13.17" length="13.16" shape="1012.49,466.30 1008.82,465.42 1006.17,465.10 1003.60,465.54 1000.16,466.96"/>
    </edge>
    <edge id=":132587821_0" function="internal">
        <lane id=":132587821_0_0" index="0" disallow="tram rail_urban rail rail_electric rail_fast ship" speed="13.20" length="9.87" shape="986.77,489.95 987.28,492.72 986.95,494.67 986.11,496.62 985.08,499.39"/>
    </edge>
    <edge id=":132587821_1" function="internal">
        <lane id=":132587821_1_0" index="0" disallow="tram rail_urban rail rail_electric rail_fast ship" speed="13.76" length="10.73" shape="986.77,489.95 987.82,492.98 988.58,495.13 988.77,497.28 988.14,500.31"/>
    </edge>
    <edge id=":132587821_2" function="internal">
        <lane id=":132587821_2_0" index="0" disallow="tram rail_urban rail rail_electric rail_fast ship" speed="13.89" length="10.94" shape="986.77,489.95 987.76,493.17 988.72,495.32 990.17,497.15 992.65,499.39"/>
        <lane id=":132587821_2_1" index="1" disallow="tram rail_urban rail rail_electric rail_fast ship" speed="13.71" length="10.94" shape="989.83,489.04 990.78,491.98 991.74,493.91 993.15,495.54 995.46,497.58"/>
    </edge>
    <edge id=":132589782_0" function="internal">
        <lane id=":132589782_0_0" index="0" disallow="tram rail_urban rail rail_electric rail_fast ship" speed="13.89" length="10.27" shape="900.25,814.57 900.12,811.63 900.68,809.65 901.75,807.73 903.09,804.97"/>
    </edge>
    <edge id=":132589782_1" function="internal">
        <lane id=":132589782_1_0" index="0" disallow="tram rail_urban rail rail_electric rail_fast ship" speed="13.89" length="11.07" shape="900.25,814.57 899.61,811.33 899.12,809.04 899.17,806.81 900.13,803.76"/>
    </edge>
    <edge id=":132589782_2" function="internal">
        <lane id=":132589782_2_0" index="0" disallow="tram rail_urban rail rail_electric rail_fast ship" speed="13.89" length="11.30" shape="900.25,814.57 899.70,811.14 899.03,808.81 897.78,806.75 895.53,804.14"/>
        <lane id=":132589782_2_1" index="1" disallow="tram rail_urban rail rail_electric rail_fast ship" speed="13.57" length="11.30" shape="897.09,815.05 896.54,811.90 895.82,809.79 894.59,807.93 892.47,805.54"/>
    </edge>
    <edge id=":132589785_0" function="internal">
        <lane id=":132589785_0_0" index="0" disallow="tram rail_urban rail rail_electric rail_fast ship" speed="9.96" length="9.81" shape="887.86,792.69 886.01,794.49 884.67,795.82 883.15,796.61 880.75,796.79"/>
        <lane id=":132589785_0_1" index="1" disallow="tram rail_urban rail rail_electric rail_fast ship" speed="11.23" length="9.81" shape="889.95,795.11 887.54,797.36 885.75,798.94 883.71,799.82 880.59,799.98"/>
    </edge>
    <edge id=":132589785_2" function="internal">
        <lane id=":132589785_2_0" index="0" disallow="tram rail_urban rail rail_electric rail_fast ship" speed="13.89" length="10.09" shape="890.63,799.77 887.96,798.20 885.97,797.36 883.85,796.98 880.75,796.79"/>
        <lane id=":132589785_2_1" index="1" disallow="tram rail_urban rail rail_electric rail_fast ship" speed="13.89" length="10.09" shape="889.61,802.89 887.16,801.43 885.36,800.60 883.43,800.19 880.59,799.98"/>
    </edge>
    <edge id=":132589794_0" function="internal">
        <lane id=":132589794_0_0" index="0" disallow="tram rail_urban rail rail_electric rail_fast ship" speed="13.16" length="11.17" shape="872.18,836.45 875.18,837.95 877.14,839.33 878.64,841.10 880.24,843.76"/>
    </edge>
    <edge id=":132589794_1" function="internal">
        <lane id=":132589794_1_0" index="0" disallow="tram rail_urban rail rail_electric rail_fast ship" speed="13.89" length="11.18" shape="872.18,836.45 875.30,837.70 877.59,838.10 879.98,837.98 883.38,837.70"/>
        <lane id=":132589794_1_1" index="1" disallow="tram rail_urban rail rail_electric rail_fast ship" speed="11.05" length="11.18" shape="873.54,833.56 876.46,834.82 878.66,835.33 880.89,835.10 883.93,834.17"/>
    </edge>
    <edge id=":132593103_0" function="internal">
        <lane id=":132593103_0_0" index="0" disallow="tram rail_urban rail rail_electric rail_fast ship" speed="13.89" length="16.26" shape="853.15,780.15 850.15,777.54 847.12,774.61 844.43,771.44 842.45,768.07"/>
    </edge>
    <edge id=":132593103_1" function="internal">
        <lane id=":132593103_1_0" index="0" disallow="tram rail_urban rail rail_electric rail_fast ship" speed="5.88" length="13.93" shape="853.15,780.15 849.13,777.07 847.20,776.49 847.35,778.40 849.60,782.79"/>
    </edge>
    <edge id=":132593103_2" function="internal">
        <lane id=":132593103_2_0" index="0" disallow="tram rail_urban rail rail_electric rail_fast ship" speed="13.89" length="16.39" shape="839.51,769.34 840.89,772.58 842.28,775.78 844.07,779.44 846.65,784.08"/>
    </edge>
    <edge id=":132593103_3" function="internal">
        <lane id=":132593103_3_0" index="0" disallow="tram rail_urban rail rail_electric rail_fast ship" speed="3.65" length="2.53" shape="839.51,769.34 840.72,770.12 841.62,770.17 841.74,770.02"/>
    </edge>
    <edge id=":132593103_4" function="internal">
        <lane id=":132593103_4_0" index="0" disallow="tram rail_urban rail rail_electric rail_fast ship" speed="3.65" length="2.14" shape="841.74,770.02 842.19,769.49 842.45,768.07"/>
    </edge>
    <edge id=":132593104_0" function="internal">
        <lane id=":132593104_0_0" index="0" disallow="tram rail_urban rail rail_electric rail_fast ship" speed="13.38" length="10.20" shape="866.27,801.60 863.81,803.51 862.46,805.22 861.56,807.28 860.46,810.28"/>
        <lane id=":132593104_0_1" index="1" disallow="tram rail_urban rail rail_electric rail_fast ship" speed="12.72" length="10.20" shape="868.84,803.72 866.59,805.43 865.32,806.93 864.46,808.76 863.44,811.44"/>
    </edge>
    <edge id=":132593104_2" function="internal">
        <lane id=":132593104_2_0" index="0" disallow="tram rail_urban rail rail_electric rail_fast ship" speed="8.32" length="7.93" shape="858.47,802.85 859.73,805.11 860.48,807.10 860.72,808.82 860.46,810.28"/>
    </edge>
    <edge id=":132593104_3" function="internal">
        <lane id=":132593104_3_0" index="0" disallow="tram rail_urban rail rail_electric rail_fast ship" speed="9.67" length="10.91" shape="861.18,801.14 862.77,804.10 863.68,806.80 863.91,809.25 863.44,811.44"/>
    </edge>
    <edge id=":1877688651_0" function="internal">
        <lane id=":1877688651_0_0" index="0" allow="bicycle" speed="2.04" length="1.46" width="1.00" shape="1067.26,-0.09 1066.94,-0.41 1066.67,-0.49 1066.45,-0.32 1066.28,0.09"/>
    </edge>
    <edge id=":1877688653_0" function="internal">
        <lane id=":1877688653_0_0" index="0" allow="bicycle" speed="2.04" length="1.46" width="1.00" shape="1091.89,6.00 1091.54,5.71 1091.27,5.67 1091.07,5.87 1090.94,6.30"/>
    </edge>
    <edge id=":2335415286_0" function="internal">
        <lane id=":2335415286_0_0" index="0" allow="pedestrian delivery bicycle" speed="5.56" length="10.71" shape="831.50,596.15 821.05,593.81"/>
    </edge>
    <edge id=":2335415286_1" function="internal">
        <lane id=":2335415286_1_0" index="0" allow="pedestrian delivery bicycle" speed="5.56" length="14.10" shape="831.50,596.15 827.21,595.77 824.72,596.91 824.02,599.56 825.13,603.72"/>
    </edge>
    <edge id=":2335415286_2" function="internal">
        <lane id=":2335415286_2_0" index="0" allow="pedestrian delivery bicycle" speed="3.65" length="4.67" shape="831.50,596.15 830.16,596.68 829.60,597.37 829.82,598.24 830.82,599.28"/>
    </edge>
    <edge id=":2335415286_3" function="internal">
        <lane id=":2335415286_3_0" index="0" allow="pedestrian delivery bicycle" speed="4.66" length="6.02" shape="828.09,602.51 827.62,600.73 827.92,599.60 828.98,599.12 830.82,599.28"/>
    </edge>
    <edge id=":2335415286_4" function="internal">
        <lane id=":2335415286_4_0" index="0" allow="pedestrian delivery bicycle" speed="5.56" length="11.55" shape="828.09,602.51 826.46,599.05 824.74,596.44 822.94,594.70 821.05,593.81"/>
    </edge>
    <edge id=":2335415286_5" function="internal">
        <lane id=":2335415286_5_0" index="0" allow="pedestrian delivery bicycle" speed="3.65" length="4.67" shape="828.09,602.51 826.90,601.71 826.01,601.64 825.42,602.31 825.13,603.72"/>
    </edge>
    <edge id=":2335415286_6" function="internal">
        <lane id=":2335415286_6_0" index="0" allow="pedestrian delivery bicycle" speed="5.56" length="8.54" shape="820.31,596.93 821.46,597.55 822.65,598.89 823.87,600.95 825.13,603.72"/>
    </edge>
    <edge id=":2335415286_7" function="internal">
        <lane id=":2335415286_7_0" index="0" allow="pedestrian delivery bicycle" speed="5.56" length="10.76" shape="820.31,596.93 830.82,599.28"/>
    </edge>
    <edge id=":2335415286_8" function="internal">
        <lane id=":2335415286_8_0" index="0" allow="pedestrian delivery bicycle" speed="3.65" length="4.67" shape="820.31,596.93 821.67,596.42 822.24,595.74 822.03,594.87 821.05,593.81"/>
    </edge>
    <edge id=":2335415291_0" function="internal">
        <lane id=":2335415291_0_0" index="0" allow="pedestrian delivery bicycle" speed="5.56" length="10.28" shape="850.10,599.78 839.98,598.01"/>
    </edge>
    <edge id=":2335415291_1" function="internal">
        <lane id=":2335415291_1_0" index="0" allow="pedestrian delivery bicycle" speed="5.56" length="13.60" shape="850.10,599.78 845.99,599.68 843.61,600.94 842.95,603.55 844.01,607.52"/>
    </edge>
    <edge id=":2335415291_2" function="internal">
        <lane id=":2335415291_2_0" index="0" allow="pedestrian delivery bicycle" speed="3.65" length="4.67" shape="850.10,599.78 848.79,600.39 848.27,601.12 848.54,601.97 849.60,602.95"/>
    </edge>
    <edge id=":2335415291_3" function="internal">
        <lane id=":2335415291_3_0" index="0" allow="pedestrian delivery bicycle" speed="4.67" length="5.89" shape="846.97,606.29 846.51,604.57 846.79,603.44 847.83,602.90 849.60,602.95"/>
    </edge>
    <edge id=":2335415291_4" function="internal">
        <lane id=":2335415291_4_0" index="0" allow="pedestrian delivery bicycle" speed="5.56" length="11.20" shape="846.97,606.29 845.38,602.99 843.68,600.51 841.88,598.85 839.98,598.01"/>
    </edge>
    <edge id=":2335415291_5" function="internal">