<?xml version="1.0" encoding="UTF-8"?>

<!-- generated on Tue Feb 25 15:13:15 2020 by Eclipse SUMO netconvert Version 1.5.0
<configuration xmlns:xsi="http://www.w3.org/2001/XMLSchema-instance" xsi:noNamespaceSchemaLocation="http://sumo.dlr.de/xsd/netconvertConfiguration.xsd">

    <input>
        <type-files value="/usr/share/sumo/data/typemap/osmNetconvert.typ.xml"/>
        <osm-files value="osm_bbox.osm.xml"/>
    </input>

    <output>
        <output-file value="osm.net.xml"/>
        <output.street-names value="true"/>
        <output.original-names value="true"/>
    </output>

    <projection>
        <proj.utm value="true"/>
    </projection>

    <processing>
        <geometry.remove value="true"/>
        <roundabouts.guess value="true"/>
        <lefthand value="true"/>
    </processing>

    <tls_building>
        <tls.discard-simple value="true"/>
        <tls.join value="true"/>
        <tls.guess-signals value="true"/>
        <tls.default-type value="actuated"/>
    </tls_building>

    <ramp_guessing>
        <ramps.guess value="true"/>
    </ramp_guessing>

    <junctions>
        <junctions.join value="true"/>
        <junctions.corner-detail value="5"/>
    </junctions>

    <report>
        <verbose value="true"/>
        <aggregate-warnings value="5"/>
    </report>

</configuration>
-->

<net version="1.3" junctionCornerDetail="5" lefthand="true" limitTurnSpeed="5.50" xmlns:xsi="http://www.w3.org/2001/XMLSchema-instance" xsi:noNamespaceSchemaLocation="http://sumo.dlr.de/xsd/net_file.xsd">

    <location netOffset="-695767.52,-5890753.99" convBoundary="0.00,-0.00,1194.54,1128.99" origBoundary="-6.073576,53.129232,-6.052055,53.140002" projParameter="+proj=utm +zone=29 +ellps=WGS84 +datum=WGS84 +units=m +no_defs"/>

    <type id="highway.bridleway" priority="1" numLanes="1" speed="2.78" allow="pedestrian" oneway="1" width="2.00"/>
    <type id="highway.bus_guideway" priority="1" numLanes="1" speed="27.78" allow="bus" oneway="1"/>
    <type id="highway.cycleway" priority="1" numLanes="1" speed="8.33" allow="bicycle" oneway="0" width="1.00"/>
    <type id="highway.footway" priority="1" numLanes="1" speed="2.78" allow="pedestrian" oneway="1" width="2.00"/>
    <type id="highway.ford" priority="1" numLanes="1" speed="2.78" allow="army" oneway="0"/>
    <type id="highway.living_street" priority="2" numLanes="1" speed="2.78" disallow="tram rail_urban rail rail_electric rail_fast ship" oneway="0"/>
    <type id="highway.motorway" priority="14" numLanes="2" speed="39.44" allow="private emergency authority army vip passenger hov taxi bus coach delivery truck trailer motorcycle evehicle custom1 custom2" oneway="1"/>
    <type id="highway.motorway_link" priority="9" numLanes="1" speed="22.22" allow="private emergency authority army vip passenger hov taxi bus coach delivery truck trailer motorcycle evehicle custom1 custom2" oneway="1"/>
    <type id="highway.path" priority="1" numLanes="1" speed="2.78" allow="pedestrian bicycle" oneway="1" width="2.00"/>
    <type id="highway.pedestrian" priority="1" numLanes="1" speed="2.78" allow="pedestrian" oneway="1" width="2.00"/>
    <type id="highway.primary" priority="12" numLanes="2" speed="27.78" disallow="tram rail_urban rail rail_electric rail_fast ship" oneway="0"/>
    <type id="highway.primary_link" priority="7" numLanes="1" speed="22.22" disallow="tram rail_urban rail rail_electric rail_fast ship" oneway="0"/>
    <type id="highway.raceway" priority="15" numLanes="2" speed="83.33" allow="vip" oneway="0"/>
    <type id="highway.residential" priority="3" numLanes="1" speed="13.89" disallow="tram rail_urban rail rail_electric rail_fast ship" oneway="0"/>
    <type id="highway.secondary" priority="11" numLanes="1" speed="27.78" disallow="tram rail_urban rail rail_electric rail_fast ship" oneway="0"/>
    <type id="highway.secondary_link" priority="6" numLanes="1" speed="22.22" disallow="tram rail_urban rail rail_electric rail_fast ship" oneway="0"/>
    <type id="highway.service" priority="1" numLanes="1" speed="5.56" allow="pedestrian delivery bicycle" oneway="0"/>
    <type id="highway.stairs" priority="1" numLanes="1" speed="1.39" allow="pedestrian" oneway="1" width="2.00"/>
    <type id="highway.step" priority="1" numLanes="1" speed="1.39" allow="pedestrian" oneway="1" width="2.00"/>
    <type id="highway.steps" priority="1" numLanes="1" speed="1.39" allow="pedestrian" oneway="1" width="2.00"/>
    <type id="highway.tertiary" priority="10" numLanes="1" speed="22.22" disallow="tram rail_urban rail rail_electric rail_fast ship" oneway="0"/>
    <type id="highway.tertiary_link" priority="5" numLanes="1" speed="22.22" disallow="tram rail_urban rail rail_electric rail_fast ship" oneway="0"/>
    <type id="highway.track" priority="1" numLanes="1" speed="5.56" disallow="tram rail_urban rail rail_electric rail_fast ship" oneway="0"/>
    <type id="highway.trunk" priority="13" numLanes="2" speed="27.78" disallow="pedestrian bicycle tram rail_urban rail rail_electric rail_fast ship" oneway="0"/>
    <type id="highway.trunk_link" priority="8" numLanes="1" speed="22.22" disallow="pedestrian bicycle tram rail_urban rail rail_electric rail_fast ship" oneway="0"/>
    <type id="highway.unclassified" priority="4" numLanes="1" speed="13.89" disallow="tram rail_urban rail rail_electric rail_fast ship" oneway="0"/>
    <type id="highway.unsurfaced" priority="1" numLanes="1" speed="8.33" disallow="tram rail_urban rail rail_electric rail_fast ship" oneway="0"/>
    <type id="railway.highspeed" priority="21" numLanes="1" speed="69.44" allow="rail_fast" oneway="1"/>
    <type id="railway.light_rail" priority="19" numLanes="1" speed="27.78" allow="rail_urban" oneway="1"/>
    <type id="railway.preserved" priority="16" numLanes="1" speed="27.78" allow="rail" oneway="1"/>
    <type id="railway.rail" priority="20" numLanes="1" speed="44.44" allow="rail" oneway="1"/>
    <type id="railway.subway" priority="18" numLanes="1" speed="27.78" allow="rail_urban" oneway="1"/>
    <type id="railway.tram" priority="17" numLanes="1" speed="13.89" allow="tram" oneway="1"/>

    <edge id=":132586128_0" function="internal">
        <lane id=":132586128_0_0" index="0" disallow="tram rail_urban rail rail_electric rail_fast ship" speed="12.27" length="12.73" shape="796.19,197.60 795.42,201.06 794.36,203.33 792.63,205.20 789.85,207.49"/>
        <lane id=":132586128_0_1" index="1" disallow="tram rail_urban rail rail_electric rail_fast ship" speed="12.78" length="12.73" shape="799.11,199.47 798.22,203.20 796.94,205.58 794.93,207.53 791.86,209.98"/>
    </edge>
    <edge id=":132586128_2" function="internal">
        <lane id=":132586128_2_0" index="0" disallow="tram rail_urban rail rail_electric rail_fast ship" speed="13.89" length="12.90" shape="802.15,203.17 798.20,203.54 795.47,204.04 793.00,205.18 789.85,207.49"/>
        <lane id=":132586128_2_1" index="1" disallow="tram rail_urban rail rail_electric rail_fast ship" speed="13.89" length="12.90" shape="803.39,206.26 799.71,206.56 797.13,206.92 794.80,207.88 791.86,209.98"/>
    </edge>
    <edge id=":132586132_0" function="internal">
        <lane id=":132586132_0_0" index="0" disallow="tram rail_urban rail rail_electric rail_fast ship" speed="13.89" length="10.76" shape="784.85,236.06 786.25,238.83 786.66,240.96 786.65,243.23 786.81,246.44"/>
    </edge>
    <edge id=":132586132_1" function="internal">
        <lane id=":132586132_1_0" index="0" disallow="tram rail_urban rail rail_electric rail_fast ship" speed="13.89" length="11.47" shape="784.85,236.06 786.82,238.86 788.31,240.77 789.35,242.83 789.99,246.09"/>
    </edge>
    <edge id=":132586132_2" function="internal">
        <lane id=":132586132_2_0" index="0" disallow="tram rail_urban rail rail_electric rail_fast ship" speed="12.61" length="11.97" shape="784.85,236.06 786.79,239.18 788.38,241.24 790.46,242.69 793.82,243.98"/>
        <lane id=":132586132_2_1" index="1" disallow="tram rail_urban rail rail_electric rail_fast ship" speed="12.18" length="11.97" shape="787.57,234.37 789.41,237.22 791.00,239.01 793.03,240.24 796.20,241.39"/>
    </edge>
    <edge id=":132586136_0" function="internal">
        <lane id=":132586136_0_0" index="0" disallow="tram rail_urban rail rail_electric rail_fast ship" speed="13.89" length="11.08" shape="809.84,250.59 811.01,247.75 811.71,245.67 812.76,243.89 814.98,241.95"/>
        <lane id=":132586136_0_1" index="1" disallow="tram rail_urban rail rail_electric rail_fast ship" speed="13.89" length="11.08" shape="806.97,249.17 808.36,245.91 809.25,243.55 810.54,241.54 813.15,239.33"/>
    </edge>
    <edge id=":132586136_2" function="internal">
        <lane id=":132586136_2_0" index="0" disallow="tram rail_urban rail rail_electric rail_fast ship" speed="13.89" length="11.44" shape="804.13,245.83 807.56,245.30 809.92,244.78 812.10,243.82 814.98,241.95"/>
        <lane id=":132586136_2_1" index="1" disallow="tram rail_urban rail rail_electric rail_fast ship" speed="12.30" length="11.44" shape="802.86,242.62 806.11,242.70 808.36,242.28 810.43,241.20 813.15,239.33"/>
    </edge>
    <edge id=":132586303_0" function="internal">
        <lane id=":132586303_0_0" index="0" disallow="tram rail_urban rail rail_electric rail_fast ship" speed="13.02" length="9.77" shape="818.91,210.53 817.31,208.26 816.79,206.37 816.74,204.27 816.54,201.35"/>
    </edge>
    <edge id=":132586303_1" function="internal">
        <lane id=":132586303_1_0" index="0" disallow="tram rail_urban rail rail_electric rail_fast ship" speed="13.58" length="10.65" shape="818.91,210.53 816.70,208.25 815.12,206.63 814.05,204.77 813.37,201.79"/>
    </edge>
    <edge id=":132586303_2" function="internal">
        <lane id=":132586303_2_0" index="0" disallow="tram rail_urban rail rail_electric rail_fast ship" speed="13.89" length="11.10" shape="818.91,210.53 816.63,208.09 814.82,206.64 812.75,205.56 809.66,204.23"/>
        <lane id=":132586303_2_1" index="1" disallow="tram rail_urban rail rail_electric rail_fast ship" speed="12.11" length="11.10" shape="816.52,212.65 814.41,210.22 812.77,208.64 810.81,207.63 807.75,206.93"/>
    </edge>
    <edge id=":1831940969_0" function="internal">
        <lane id=":1831940969_0_0" index="0" disallow="tram rail_urban rail rail_electric rail_fast ship" speed="3.65" length="4.67" shape="1018.92,14.83 1017.90,13.82 1017.03,13.59 1016.33,14.15 1015.79,15.48"/>
    </edge>
    <edge id=":1831940974_0" function="internal">
        <lane id=":1831940974_0_0" index="0" disallow="tram rail_urban rail rail_electric rail_fast ship" speed="11.60" length="10.45" shape="829.04,218.66 826.39,217.72 824.44,217.11 822.86,216.09 821.31,213.93"/>
        <lane id=":1831940974_0_1" index="1" disallow="tram rail_urban rail rail_electric rail_fast ship" speed="12.79" length="10.45" shape="827.76,221.60 824.54,220.39 822.23,219.52 820.36,218.16 818.51,215.46"/>
    </edge>
    <edge id=":1831940974_2" function="internal">
        <lane id=":1831940974_2_0" index="0" disallow="tram rail_urban rail rail_electric rail_fast ship" speed="13.89" length="10.57" shape="824.11,224.33 824.13,221.10 823.77,218.88 822.87,216.79 821.31,213.93"/>
        <lane id=":1831940974_2_1" index="1" disallow="tram rail_urban rail rail_electric rail_fast ship" speed="13.89" length="10.57" shape="820.87,225.08 820.93,222.10 820.66,220.05 819.91,218.10 818.51,215.46"/>
    </edge>
    <edge id=":1831940977_0" function="internal">
        <lane id=":1831940977_0_0" index="0" disallow="tram rail_urban rail rail_electric rail_fast ship" speed="7.40" length="8.33" shape="983.50,236.13 982.85,238.08 981.68,239.63 980.01,240.78 977.83,241.52"/>
    </edge>
    <edge id=":1831940977_1" function="internal">
        <lane id=":1831940977_1_0" index="0" disallow="tram rail_urban rail rail_electric rail_fast ship" speed="7.67" length="8.24" shape="990.00,243.77 988.27,242.14 987.13,240.42 986.59,238.61 986.64,236.71"/>
    </edge>
    <edge id=":1831940977_2" function="internal">
        <lane id=":1831940977_2_0" index="0" disallow="tram rail_urban rail rail_electric rail_fast ship" speed="10.90" length="12.79" shape="990.00,243.77 987.38,242.18 984.48,241.28 981.29,241.06 977.83,241.52"/>
    </edge>
    <edge id=":1831940980_0" function="internal">
        <lane id=":1831940980_0_0" index="0" disallow="tram rail_urban rail rail_electric rail_fast ship" speed="13.22" length="8.80" shape="975.65,242.57 973.30,243.58 971.55,243.86 969.70,243.71 967.09,243.44"/>
    </edge>
    <edge id=":1831940980_1" function="internal">
        <lane id=":1831940980_1_0" index="0" disallow="tram rail_urban rail rail_electric rail_fast ship" speed="13.89" length="9.96" shape="975.65,242.57 973.14,244.19 971.46,245.56 969.67,246.45 966.87,246.63"/>
    </edge>
    <edge id=":1831940980_2" function="internal">
        <lane id=":1831940980_2_0" index="0" disallow="tram rail_urban rail rail_electric rail_fast ship" speed="9.59" length="10.33" shape="975.65,242.57 973.34,244.05 971.56,245.86 970.29,248.00 969.55,250.46"/>
    </edge>
    <edge id=":1831940984_0" function="internal">
        <lane id=":1831940984_0_0" index="0" disallow="tram rail_urban rail rail_electric rail_fast ship" speed="13.89" length="10.95" shape="815.15,241.84 817.90,240.27 820.04,239.76 822.35,239.64 825.60,239.25"/>
    </edge>
    <edge id=":1831940984_1" function="internal">
        <lane id=":1831940984_1_0" index="0" disallow="tram rail_urban rail rail_electric rail_fast ship" speed="13.89" length="11.59" shape="815.15,241.84 817.87,239.71 819.73,238.14 821.76,236.98 825.01,236.10"/>
    </edge>
    <edge id=":1831940984_2" function="internal">
        <lane id=":1831940984_2_0" index="0" disallow="tram rail_urban rail rail_electric rail_fast ship" speed="13.03" length="12.16" shape="815.15,241.84 818.18,239.71 820.14,237.97 821.49,235.80 822.67,232.35"/>
        <lane id=":1831940984_2_1" index="1" disallow="tram rail_urban rail rail_electric rail_fast ship" speed="12.64" length="12.16" shape="813.31,239.22 816.11,237.17 817.82,235.44 818.96,233.30 820.02,230.01"/>
    </edge>
    <edge id=":1831940992_0" function="internal">
        <lane id=":1831940992_0_0" index="0" disallow="tram rail_urban rail rail_electric rail_fast ship" speed="13.89" length="15.98" shape="961.50,256.55 975.14,264.88"/>
    </edge>
    <edge id=":1831940992_1" function="internal">
        <lane id=":1831940992_1_0" index="0" disallow="tram rail_urban rail rail_electric rail_fast ship" speed="10.60" length="16.13" shape="969.51,250.65 969.27,254.73 970.13,258.46 972.09,261.84 975.14,264.88"/>
    </edge>
    <edge id=":1831940994_0" function="internal">
        <lane id=":1831940994_0_0" index="0" allow="pedestrian delivery bicycle" speed="5.73" length="4.75" shape="980.57,269.60 980.88,268.60 981.54,267.77 982.55,267.11 983.91,266.62"/>
    </edge>
    <edge id=":1831940994_1" function="internal">
        <lane id=":1831940994_1_0" index="0" allow="pedestrian delivery bicycle" speed="6.31" length="4.95" shape="975.26,264.97 976.30,265.96 977.01,266.99 977.37,268.06 977.39,269.18"/>
    </edge>
    <edge id=":1831940994_2" function="internal">
        <lane id=":1831940994_2_0" index="0" disallow="tram rail_urban rail rail_electric rail_fast ship" speed="8.92" length="9.14" shape="975.26,264.97 977.19,266.18 979.28,266.86 981.52,267.01 983.91,266.62"/>
    </edge>
    <edge id=":1877688651_0" function="internal">
        <lane id=":1877688651_0_0" index="0" allow="bicycle" speed="2.04" length="1.46" width="1.00" shape="755.39,-0.09 755.08,-0.41 754.81,-0.49 754.59,-0.32 754.41,0.09"/>
    </edge>
    <edge id=":1877688653_0" function="internal">
        <lane id=":1877688653_0_0" index="0" allow="bicycle" speed="2.04" length="1.46" width="1.00" shape="780.03,6.00 779.68,5.71 779.40,5.67 779.20,5.87 779.08,6.30"/>
    </edge>
    <edge id=":2390580634_0" function="internal">
        <lane id=":2390580634_0_0" index="0" allow="bicycle" speed="2.04" length="1.46" width="1.00" shape="-0.49,264.52 -0.31,264.93 -0.08,265.09 0.19,265.01 0.49,264.68"/>
    </edge>
    <edge id=":244372896_0" function="internal">
        <lane id=":244372896_0_0" index="0" allow="bicycle" speed="2.04" length="1.46" width="1.00" shape="874.82,1128.94 875.03,1129.34 875.26,1129.49 875.52,1129.39 875.81,1129.04"/>
    </edge>
    <edge id=":4963836000_0" function="internal">
        <lane id=":4963836000_0_0" index="0" allow="bicycle" speed="8.33" length="5.00" width="1.00" shape="740.98,367.55 738.66,371.98"/>
    </edge>
    <edge id=":4963836000_1" function="internal">
        <lane id=":4963836000_1_0" index="0" allow="bicycle" speed="2.04" length="1.46" width="1.00" shape="740.98,367.55 741.03,368.00 741.20,368.22 741.48,368.23 741.87,368.01"/>
    </edge>
    <edge id=":4963836000_2" function="internal">
        <lane id=":4963836000_2_0" index="0" allow="bicycle" speed="8.33" length="5.00" width="1.00" shape="739.55,372.44 741.87,368.01"/>
    </edge>
    <edge id=":4963836000_3" function="internal">
        <lane id=":4963836000_3_0" index="0" allow="bicycle" speed="2.04" length="1.46" width="1.00" shape="739.55,372.44 739.50,372.00 739.34,371.77 739.06,371.76 738.66,371.98"/>
    </edge>
    <edge id=":5098012706_0" function="internal">
        <lane id=":5098012706_0_0" index="0" allow="pedestrian delivery bicycle" speed="3.65" length="4.67" shape="1007.12,213.15 1007.70,214.47 1008.41,215.01 1009.27,214.76 1010.27,213.72"/>
    </edge>
    <edge id=":5098012707_0" function="internal">
        <lane id=":5098012707_0_0" index="0" allow="pedestrian delivery bicycle" speed="5.01" length="5.03" shape="1015.01,168.79 1014.62,170.12 1013.89,170.99 1012.84,171.40 1011.46,171.36"/>
    </edge>
    <edge id=":5098012707_1" function="internal">
        <lane id=":5098012707_1_0" index="0" allow="pedestrian delivery bicycle" speed="5.56" length="9.45" shape="1015.01,168.79 1013.48,178.12"/>
    </edge>
    <edge id=":5098012707_2" function="internal">
        <lane id=":5098012707_2_0" index="0" allow="pedestrian delivery bicycle" speed="3.65" length="4.67" shape="1015.01,168.79 1015.63,170.10 1016.36,170.61 1017.21,170.33 1018.18,169.26"/>
    </edge>
    <edge id=":5098012707_3" function="internal">
        <lane id=":5098012707_3_0" index="0" allow="pedestrian delivery bicycle" speed="5.56" length="9.56" shape="1016.63,178.69 1018.18,169.26"/>
    </edge>
    <edge id=":5098012707_4" function="internal">
        <lane id=":5098012707_4_0" index="0" allow="pedestrian delivery bicycle" speed="5.56" length="10.24" shape="1016.63,178.69 1016.73,175.89 1015.90,173.74 1014.14,172.23 1011.46,171.36"/>
    </edge>
    <edge id=":5098012707_5" function="internal">
        <lane id=":5098012707_5_0" index="0" allow="pedestrian delivery bicycle" speed="3.65" length="4.67" shape="1016.63,178.69 1016.05,177.37 1015.34,176.83 1014.48,177.08 1013.48,178.12"/>
    </edge>
    <edge id=":5098012707_6" function="internal">
        <lane id=":5098012707_6_0" index="0" allow="pedestrian delivery bicycle" speed="5.05" length="5.05" shape="1010.92,174.52 1012.24,174.94 1013.11,175.69 1013.53,176.74 1013.48,178.12"/>
    </edge>
    <edge id=":5098012707_7" function="internal">
        <lane id=":5098012707_7_0" index="0" allow="pedestrian delivery bicycle" speed="5.56" length="10.28" shape="1010.92,174.52 1013.74,174.60 1015.89,173.75 1017.37,171.97 1018.18,169.26"/>
    </edge>
    <edge id=":5098012707_8" function="internal">
        <lane id=":5098012707_8_0" index="0" allow="pedestrian delivery bicycle" speed="3.65" length="4.67" shape="1010.92,174.52 1012.23,173.93 1012.76,173.21 1012.51,172.36 1011.46,171.36"/>
    </edge>
    <edge id=":5098012709_0" function="internal">
        <lane id=":5098012709_0_0" index="0" allow="pedestrian delivery bicycle" speed="3.65" length="4.67" shape="1044.40,227.18 1043.79,225.87 1043.06,225.35 1042.21,225.63 1041.24,226.69"/>
    </edge>
    <edge id=":5098012710_0" function="internal">
        <lane id=":5098012710_0_0" index="0" allow="pedestrian delivery bicycle" speed="5.03" length="5.01" shape="1036.30,258.70 1035.90,260.02 1035.18,260.88 1034.13,261.31 1032.76,261.28"/>
    </edge>
    <edge id=":5098012710_1" function="internal">
        <lane id=":5098012710_1_0" index="0" allow="pedestrian delivery bicycle" speed="5.56" length="10.16" shape="1036.30,258.70 1036.27,261.49 1037.13,263.62 1038.89,265.10 1041.54,265.92"/>
    </edge>
    <edge id=":5098012710_2" function="internal">
        <lane id=":5098012710_2_0" index="0" allow="pedestrian delivery bicycle" speed="3.65" length="4.67" shape="1036.30,258.70 1036.91,260.01 1037.64,260.53 1038.49,260.25 1039.46,259.19"/>
    </edge>
    <edge id=":5098012710_3" function="internal">
        <lane id=":5098012710_3_0" index="0" allow="pedestrian delivery bicycle" speed="5.06" length="5.02" shape="1042.04,262.76 1040.73,262.36 1039.87,261.63 1039.45,260.57 1039.46,259.19"/>
    </edge>
    <edge id=":5098012710_4" function="internal">
        <lane id=":5098012710_4_0" index="0" allow="pedestrian delivery bicycle" speed="5.56" length="9.40" shape="1042.04,262.76 1032.76,261.28"/>
    </edge>
    <edge id=":5098012710_5" function="internal">
        <lane id=":5098012710_5_0" index="0" allow="pedestrian delivery bicycle" speed="3.65" length="4.67" shape="1042.04,262.76 1040.73,263.37 1040.21,264.09 1040.48,264.95 1041.54,265.92"/>
    </edge>
    <edge id=":5098012710_6" function="internal">
        <lane id=":5098012710_6_0" index="0" allow="pedestrian delivery bicycle" speed="5.56" length="9.40" shape="1032.25,264.44 1041.54,265.92"/>
    </edge>
    <edge id=":5098012710_7" function="internal">
        <lane id=":5098012710_7_0" index="0" allow="pedestrian delivery bicycle" speed="5.56" length="10.19" shape="1032.25,264.44 1035.05,264.49 1037.18,263.63 1038.65,261.86 1039.46,259.19"/>
    </edge>
    <edge id=":5098012710_8" function="internal">
        <lane id=":5098012710_8_0" index="0" allow="pedestrian delivery bicycle" speed="3.65" length="4.67" shape="1032.25,264.44 1033.56,263.84 1034.09,263.12 1033.82,262.26 1032.76,261.28"/>
    </edge>
    <edge id=":5098012711_0" function="internal">
        <lane id=":5098012711_0_0" index="0" allow="pedestrian delivery bicycle" speed="3.65" length="4.67" shape="1075.86,231.29 1075.27,229.97 1074.55,229.44 1073.69,229.70 1072.70,230.74"/>
    </edge>
    <edge id=":5098012712_0" function="internal">
        <lane id=":5098012712_0_0" index="0" allow="pedestrian delivery bicycle" speed="5.08" length="5.05" shape="1067.06,263.56 1066.63,264.89 1065.90,265.77 1064.85,266.20 1063.48,266.18"/>
    </edge>
    <edge id=":5098012712_1" function="internal">
        <lane id=":5098012712_1_0" index="0" allow="pedestrian delivery bicycle" speed="5.56" length="10.22" shape="1067.06,263.56 1066.98,266.36 1067.82,268.51 1069.58,270.00 1072.26,270.83"/>
    </edge>
    <edge id=":5098012712_2" function="internal">
        <lane id=":5098012712_2_0" index="0" allow="pedestrian delivery bicycle" speed="3.65" length="4.67" shape="1067.06,263.56 1067.64,264.88 1068.36,265.41 1069.22,265.15 1070.21,264.10"/>
    </edge>
    <edge id=":5098012712_3" function="internal">
        <lane id=":5098012712_3_0" index="0" allow="pedestrian delivery bicycle" speed="5.03" length="5.01" shape="1072.76,267.67 1071.45,267.26 1070.59,266.53 1070.17,265.48 1070.21,264.10"/>
    </edge>
    <edge id=":5098012712_4" function="internal">
        <lane id=":5098012712_4_0" index="0" allow="pedestrian delivery bicycle" speed="5.56" length="9.40" shape="1072.76,267.67 1063.48,266.18"/>
    </edge>
    <edge id=":5098012712_5" function="internal">
        <lane id=":5098012712_5_0" index="0" allow="pedestrian delivery bicycle" speed="3.65" length="4.67" shape="1072.76,267.67 1071.45,268.27 1070.93,268.99 1071.20,269.85 1072.26,270.83"/>
    </edge>
    <edge id=":5098012712_6" function="internal">
        <lane id=":5098012712_6_0" index="0" allow="pedestrian delivery bicycle" speed="5.56" length="9.40" shape="1062.98,269.35 1072.26,270.83"/>
    </edge>
    <edge id=":5098012712_7" function="internal">
        <lane id=":5098012712_7_0" index="0" allow="pedestrian delivery bicycle" speed="5.56" length="10.16" shape="1062.98,269.35 1065.74,269.39 1067.87,268.53 1069.36,266.76 1070.21,264.10"/>
    </edge>
    <edge id=":5098012712_8" function="internal">
        <lane id=":5098012712_8_0" index="0" allow="pedestrian delivery bicycle" speed="3.65" length="4.67" shape="1062.98,269.35 1064.29,268.74 1064.81,268.02 1064.54,267.16 1063.48,266.18"/>
    </edge>
    <edge id=":5098012713_0" function="internal">
        <lane id=":5098012713_0_0" index="0" allow="pedestrian delivery bicycle" speed="3.65" length="4.67" shape="1118.93,147.36 1118.34,146.04 1117.62,145.51 1116.76,145.78 1115.77,146.83"/>
    </edge>
    <edge id=":5098012922_0" function="internal">
        <lane id=":5098012922_0_0" index="0" allow="pedestrian delivery bicycle" speed="5.84" length="4.66" shape="997.68,255.63 996.77,255.28 996.00,254.60 995.37,253.57 994.89,252.21"/>
    </edge>
    <edge id=":5098012922_1" function="internal">
        <lane id=":5098012922_1_0" index="0" allow="pedestrian delivery bicycle" speed="6.13" length="4.83" shape="992.96,260.77 993.96,259.75 994.98,259.08 996.03,258.76 997.10,258.78"/>
    </edge>
    <edge id=":5098012922_2" function="internal">
        <lane id=":5098012922_2_0" index="0" disallow="tram rail_urban rail rail_electric rail_fast ship" speed="8.77" length="9.14" shape="992.96,260.77 994.28,258.79 995.04,256.70 995.24,254.51 994.89,252.21"/>
    </edge>
    <edge id=":6037097600_0" function="internal">
        <lane id=":6037097600_0_0" index="0" allow="bicycle" speed="3.70" length="3.18" shape="1004.40,253.72 1004.20,254.57 1003.78,255.13 1003.12,255.39 1002.23,255.35"/>
    </edge>
    <edge id=":6037097600_1" function="internal">
        <lane id=":6037097600_1_0" index="0" allow="bicycle" speed="8.33" length="8.96" width="1.00" shape="1004.40,253.72 1003.74,262.66"/>
    </edge>
    <edge id=":6037097600_2" function="internal">
        <lane id=":6037097600_2_0" index="0" allow="bicycle" speed="6.42" length="0.98" shape="1004.40,253.72 1004.38,254.70"/>
    </edge>
    <edge id=":6037097600_3" function="internal">
        <lane id=":6037097600_3_0" index="0" allow="bicycle" speed="2.04" length="0.73" width="1.00" shape="1004.40,253.72 1004.63,254.10 1004.87,254.24"/>
    </edge>
    <edge id=":6037097600_16" function="internal">
        <lane id=":6037097600_16_0" index="0" allow="bicycle" speed="6.42" length="7.93" shape="1004.38,254.70 1004.35,257.00 1004.74,259.40 1005.58,260.94 1006.86,261.60"/>
    </edge>
    <edge id=":6037097600_17" function="internal">
        <lane id=":6037097600_17_0" index="0" allow="bicycle" speed="2.04" length="0.73" width="1.00" shape="1004.87,254.24 1005.13,254.12 1005.40,253.76"/>
    </edge>
    <edge id=":6037097600_4" function="internal">
        <lane id=":6037097600_4_0" index="0" allow="bicycle" speed="4.62" length="3.79" width="1.00" shape="1007.67,256.26 1006.61,255.97 1005.89,255.45 1005.48,254.72 1005.40,253.76"/>
    </edge>
    <edge id=":6037097600_5" function="internal">
        <lane id=":6037097600_5_0" index="0" allow="pedestrian delivery bicycle" speed="5.56" length="5.55" shape="1007.50,257.35 1002.03,256.43"/>
    </edge>
    <edge id=":6037097600_6" function="internal">
        <lane id=":6037097600_6_0" index="0" allow="bicycle" speed="5.45" length="6.37" width="1.00" shape="1007.34,258.44 1005.89,258.52 1004.81,259.25 1004.10,260.63 1003.74,262.66"/>
    </edge>
    <edge id=":6037097600_7" function="internal">
        <lane id=":6037097600_7_0" index="0" allow="pedestrian delivery bicycle" speed="3.65" length="4.67" shape="1007.50,257.35 1006.20,257.96 1005.68,258.69 1005.96,259.55 1007.03,260.52"/>
    </edge>
    <edge id=":6037097600_8" function="internal">
        <lane id=":6037097600_8_0" index="0" allow="bicycle" speed="3.68" length="3.06" shape="1004.71,263.13 1004.89,262.35 1005.31,261.83 1005.97,261.58 1006.86,261.60"/>
    </edge>
    <edge id=":6037097600_9" function="internal">
        <lane id=":6037097600_9_0" index="0" allow="bicycle" speed="8.33" length="9.40" width="1.00" shape="1004.71,263.13 1005.40,253.76"/>
    </edge>
    <edge id=":6037097600_10" function="internal">
        <lane id=":6037097600_10_0" index="0" allow="bicycle" speed="6.46" length="0.83" shape="1004.71,263.13 1004.72,262.30"/>
    </edge>
    <edge id=":6037097600_11" function="internal">
        <lane id=":6037097600_11_0" index="0" allow="bicycle" speed="2.09" length="0.79" width="1.00" shape="1004.71,263.13 1004.65,262.65 1004.46,262.41"/>
    </edge>
    <edge id=":6037097600_18" function="internal">
        <lane id=":6037097600_18_0" index="0" allow="bicycle" speed="6.46" length="7.96" shape="1004.72,262.30 1004.75,259.94 1004.35,257.57 1003.51,256.05 1002.23,255.35"/>
    </edge>
    <edge id=":6037097600_19" function="internal">
        <lane id=":6037097600_19_0" index="0" allow="bicycle" speed="2.09" length="0.79" width="1.00" shape="1004.46,262.41 1004.16,262.41 1003.74,262.66"/>
    </edge>
    <edge id=":6037097600_12" function="internal">
        <lane id=":6037097600_12_0" index="0" allow="bicycle" speed="4.52" length="3.50" width="1.00" shape="1001.25,260.66 1002.38,260.97 1003.17,261.40 1003.63,261.96 1003.74,262.66"/>
    </edge>
    <edge id=":6037097600_13" function="internal">
        <lane id=":6037097600_13_0" index="0" allow="pedestrian delivery bicycle" speed="5.56" length="5.66" shape="1001.45,259.58 1007.03,260.52"/>
    </edge>
    <edge id=":6037097600_14" function="internal">
        <lane id=":6037097600_14_0" index="0" allow="bicycle" speed="5.60" length="6.95" width="1.00" shape="1001.65,258.50 1003.14,258.43 1004.26,257.62 1005.01,256.06 1005.40,253.76"/>
    </edge>
    <edge id=":6037097600_15" function="internal">