<?xml version="1.0" encoding="UTF-8"?>

<!-- generated on Tue Feb 25 15:13:15 2020 by Eclipse SUMO duarouter Version 1.5.0
<configuration xmlns:xsi="http://www.w3.org/2001/XMLSchema-instance" xsi:noNamespaceSchemaLocation="http://sumo.dlr.de/xsd/duarouterConfiguration.xsd">

    <input>
        <net-file value="/home/conor/Desktop/Desktop/named-data/scenario/sumo-sims/pcd-test/2020-02-25-15-13-14/osm.net.xml"/>
        <route-files value="/home/conor/Desktop/Desktop/named-data/scenario/sumo-sims/pcd-test/2020-02-25-15-13-14/osm.passenger.trips.xml"/>
    </input>

    <output>
        <output-file value="/home/conor/Desktop/Desktop/named-data/scenario/sumo-sims/pcd-test/2020-02-25-15-13-14/osm.passenger.trips.xml.tmp"/>
        <write-trips value="true"/>
    </output>

    <time>
        <begin value="0"/>
        <end value="50.0"/>
    </time>

    <report>
        <no-warnings value="true"/>
        <ignore-errors value="true"/>
        <no-step-log value="true"/>
    </report>

</configuration>
-->

<routes xmlns:xsi="http://www.w3.org/2001/XMLSchema-instance" xsi:noNamespaceSchemaLocation="http://sumo.dlr.de/xsd/routes_file.xsd">
    <vType id="veh_passenger" vClass="passenger"/>
    <trip id="veh0" type="veh_passenger" depart="0.00" departLane="best" departSpeed="max" from="13990491" to="-172271953#3"/>
    <trip id="veh1" type="veh_passenger" depart="42.86" departLane="best" from="172271950#5" to="13990248"/>
</routes>
