<?xml version="1.0" encoding="UTF-8"?>

<!-- generated on Tue 25 Feb 2020 15:48:40 GMT by Eclipse SUMO netedit Version 1.5.0
<configuration xmlns:xsi="http://www.w3.org/2001/XMLSchema-instance" xsi:noNamespaceSchemaLocation="http://sumo.dlr.de/xsd/netconvertConfiguration.xsd">

    <output>
        <output-file value="/home/conor/Desktop/Desktop/named-data/scenario/sumo-sims/pcd-test/simple.xml.net.xml"/>
    </output>

    <processing>
        <offset.disable-normalization value="true"/>
    </processing>

    <junctions>
        <no-turnarounds value="true"/>
    </junctions>

    <netedit>
        <route-files value="/home/conor/Desktop/Desktop/named-data/scenario/sumo-sims/pcd-test/routes.rou.xml"/>
    </netedit>

    <report>
        <aggregate-warnings value="5"/>
    </report>

</configuration>
-->

<routes xmlns:xsi="http://www.w3.org/2001/XMLSchema-instance" xsi:noNamespaceSchemaLocation="http://sumo.dlr.de/xsd/routes_file.xsd">
    <route edges="gneE1" color="yellow" id="route_0"/>
    <route edges="-gneE2" color="yellow" id="route_1"/>
    <route edges="gneE3" color="yellow" id="route_2"/>
    <route edges="gneE4" color="yellow" id="route_3"/>
    <route edges="gneE5" color="yellow" id="route_4"/>
    <vehicle id="vehicle_0" depart="0.00" route="route_2"/>
    <vehicle id="vehicle_1" depart="0.00" route="route_0"/>
    <vehicle id="vehicle_2" depart="0.00" route="route_1"/>
    <vehicle id="vehicle_3" depart="0.00" route="route_0"/>
</routes>
