<?xml version="1.0" encoding="UTF-8"?>

<!-- generated on Mon Feb  3 13:35:12 2020 by Eclipse SUMO duarouter Version 1.4.0
<configuration xmlns:xsi="http://www.w3.org/2001/XMLSchema-instance" xsi:noNamespaceSchemaLocation="http://sumo.dlr.de/xsd/duarouterConfiguration.xsd">

    <input>
        <net-file value="/home/conor/Desktop/Desktop/named-data/sumo-sims/athenry/2020-02-03-13-35-10/osm.net.xml"/>
        <route-files value="/home/conor/Desktop/Desktop/named-data/sumo-sims/athenry/2020-02-03-13-35-10/osm.passenger.trips.xml"/>
    </input>

    <output>
        <output-file value="routes.rou.xml"/>
        <alternatives-output value="routes.rou.alt.xml"/>
    </output>

    <time>
        <begin value="0"/>
        <end value="3600.0"/>
    </time>

    <report>
        <no-warnings value="true"/>
        <ignore-errors value="true"/>
        <no-step-log value="true"/>
    </report>

</configuration>
-->

<routes xmlns:xsi="http://www.w3.org/2001/XMLSchema-instance" xsi:noNamespaceSchemaLocation="http://sumo.dlr.de/xsd/routes_file.xsd">
    <vType id="veh_passenger" vClass="passenger"/>
    <vehicle id="veh1" type="veh_passenger" depart="1.09" departLane="best">
        <route edges="153393977#0-AddedOffRampEdge 153393977#1 153393977#2"/>
    </vehicle>
    <vehicle id="veh2" type="veh_passenger" depart="2.19" departLane="best" departSpeed="max">
        <route edges="47097747 46491492#1 46491492#2 46491492#3-AddedOnRampEdge"/>
    </vehicle>
    <vehicle id="veh17" type="veh_passenger" depart="18.61" departLane="best" departSpeed="max">
        <route edges="514898523 514898523-AddedOffRampEdge 522870936 707032739 449066484 707032745 322880368 46491492#3-AddedOnRampEdge 46491492#3"/>
    </vehicle>
    <vehicle id="veh20" type="veh_passenger" depart="21.89" departLane="best" departSpeed="max">
        <route edges="153393977#0 153393977#0-AddedOffRampEdge 153393977#1 153393977#2 153393977#3"/>
    </vehicle>
    <vehicle id="veh25" type="veh_passenger" depart="27.36" departLane="best" departSpeed="max">
        <route edges="153393977#0 153393977#0-AddedOffRampEdge 322880373 522870947 512635985 536505442 322880364#1 322880364#2 322880364#3 322880364#4 373345192#1 322882118 536505441"/>
    </vehicle>
    <vehicle id="veh26" type="veh_passenger" depart="28.45" departLane="best">
        <route edges="463595577-AddedOffRampEdge 707032741 522870943 322882116 536505446 322880364#3 322880364#4 373345192#1 373345192#2 373345192#3 536505443 707032745 322880368 46491492#3-AddedOnRampEdge 46491492#3"/>
    </vehicle>
    <vehicle id="veh29" type="veh_passenger" depart="31.74" departLane="best">
        <route edges="707032745 322880368 46491492#3-AddedOnRampEdge 46491492#3"/>
    </vehicle>
    <vehicle id="veh31" type="veh_passenger" depart="33.93" departLane="best" departSpeed="max">
        <route edges="514898523 514898523-AddedOffRampEdge 514898511 514898510#1-AddedOnRampEdge"/>
    </vehicle>
    <vehicle id="veh34" type="veh_passenger" depart="37.21" departLane="best" departSpeed="max">
        <route edges="153393977#0 153393977#0-AddedOffRampEdge 322880373 522870947 512635985 536505442 322880364#1 322880364#2 322880364#3 322880364#4 373345192#1 373345192#2 373345192#3 536505443"/>
    </vehicle>
    <vehicle id="veh36" type="veh_passenger" depart="39.40" departLane="best">
        <route edges="46491492#1 707032744 322880371 512635988 536505445 373345192#1 373345192#2 373345192#3 373345192#4 322880364#1 322880364#2 322880364#3"/>
    </vehicle>
    <vehicle id="veh38" type="veh_passenger" depart="41.59" departLane="best" departSpeed="max">
        <route edges="153393977#0 153393977#0-AddedOffRampEdge 153393977#1 153393977#2 153393977#3"/>
    </vehicle>
    <vehicle id="veh40" type="veh_passenger" depart="43.78" departLane="best" departSpeed="max">
        <route edges="463595577 463595577-AddedOffRampEdge 707032741 522870943"/>
    </vehicle>
    <vehicle id="veh43" type="veh_passenger" depart="47.06" departLane="best">
        <route edges="-406044541 406044539#1 406044540 406044543#0 406044543#1 406044543#2 278568481#0 278568481#1 278568481#2 278568481#3 278568481#4 278568481#5 -278568485#0"/>
    </vehicle>
    <vehicle id="veh47" type="veh_passenger" depart="51.44" departLane="best">
        <route edges="83745276#2 83745276#3 410955772#1"/>
    </vehicle>
    <vehicle id="veh48" type="veh_passenger" depart="52.53" departLane="best">
        <route edges="707032741 522870943 322882116 536505446 322880364#3 322880364#4 373345192#1 322882118 536505441 707032740 514898512#1-AddedOnRampEdge 514898512#1"/>
    </vehicle>
    <vehicle id="veh52" type="veh_passenger" depart="56.91" departLane="best">
        <route edges="373345192#2 373345192#3 373345192#4 322880364#1 322882117 536505447"/>
    </vehicle>
    <vehicle id="veh53" type="veh_passenger" depart="58.00" departLane="best" departSpeed="max">
        <route edges="514898523 514898523-AddedOffRampEdge 522870936 707032739 322882119 536505440 373345192#3 373345192#4 322880364#1 322880364#2 322880364#3 322882115 707032743 153393977#2 153393977#3"/>
    </vehicle>
    <vehicle id="veh54" type="veh_passenger" depart="59.10" departLane="best">
        <route edges="406044545#0 406044545#1 406044543#0 406044543#1 406044543#2 278568481#0 278568481#1 278568481#2 524933612 -524933612"/>
    </vehicle>
    <vehicle id="veh62" type="veh_passenger" depart="67.85" departLane="best">
        <route edges="514898523-AddedOffRampEdge 522870936 707032739 322882119 536505440 373345192#3 373345192#4 322880364#1 322880364#2 322880364#3 322880364#4 373345192#1 322882118 536505441 707032740 514898512#1-AddedOnRampEdge 514898512#1"/>
    </vehicle>
    <vehicle id="veh76" type="veh_passenger" depart="83.18" departLane="best" departSpeed="max">
        <route edges="153393977#0 153393977#0-AddedOffRampEdge 153393977#1"/>
    </vehicle>
    <vehicle id="veh78" type="veh_passenger" depart="85.36" departLane="best" departSpeed="max">
        <route edges="153393977#0 153393977#0-AddedOffRampEdge 322880373 522870947"/>
    </vehicle>
    <vehicle id="veh85" type="veh_passenger" depart="93.03" departLane="best" departSpeed="max">
        <route edges="47097747 46491492#1 46491492#2 46491492#3-AddedOnRampEdge 46491492#3"/>
    </vehicle>
    <vehicle id="veh88" type="veh_passenger" depart="96.31" departLane="best" departSpeed="max">
        <route edges="514898523 514898523-AddedOffRampEdge 522870936 707032739 322882119 536505440 373345192#3 373345192#4 322880364#1 322880364#2 322880364#3 322882115 707032743 153393977#2 153393977#3"/>
    </vehicle>
    <vehicle id="veh90" type="veh_passenger" depart="98.50" departLane="best">
        <route edges="322882115 707032743 153393977#2 153393977#3"/>
    </vehicle>
    <vehicle id="veh92" type="veh_passenger" depart="100.69" departLane="best">
        <route edges="373345192#1 322882118 536505441 707032740 514898512#1-AddedOnRampEdge"/>
    </vehicle>
    <vehicle id="veh99" type="veh_passenger" depart="108.35" departLane="best">
        <route edges="322880364#1 322880364#2 322880364#3 322880364#4 373345192#1 373345192#2 373345192#3 536505443 707032745"/>
    </vehicle>
    <vehicle id="veh100" type="veh_passenger" depart="109.44" departLane="best" departSpeed="max">
        <route edges="153393977#0 153393977#0-AddedOffRampEdge 322880373 522870947 449066487 536505447 514898510#1-AddedOnRampEdge"/>
    </vehicle>
    <vehicle id="veh101" type="veh_passenger" depart="110.54" departLane="best">
        <route edges="373345192#3 373345192#4 322880364#1 322880364#2 322880364#3 322882115"/>
    </vehicle>
    <vehicle id="veh111" type="veh_passenger" depart="121.48" departLane="best" departSpeed="max">
        <route edges="463595577 463595577-AddedOffRampEdge 707032741 522870943 322882116 536505446 322880364#3 322880364#4 373345192#1 373345192#2 373345192#3 536505443 707032745 322880368 46491492#3-AddedOnRampEdge"/>
    </vehicle>
    <vehicle id="veh113" type="veh_passenger" depart="123.67" departLane="best">
        <route edges="522870936 707032739 322882119 536505440 373345192#3 373345192#4 322880364#1 322880364#2 322880364#3 322882115 707032743 153393977#2 153393977#3"/>
    </vehicle>
    <vehicle id="veh114" type="veh_passenger" depart="124.76" departLane="best" departSpeed="max">
        <route edges="463595577 463595577-AddedOffRampEdge 707032741 522870943 322882116 536505446 322880364#3 322880364#4 373345192#1 373345192#2 373345192#3 536505443 707032745 322880368 46491492#3-AddedOnRampEdge 46491492#3"/>
    </vehicle>
    <vehicle id="veh117" type="veh_passenger" depart="128.05" departLane="best" departSpeed="max">
        <route edges="153393977#0 153393977#0-AddedOffRampEdge 322880373 522870947 449066487 536505447 514898510#1-AddedOnRampEdge 514898510#1"/>
    </vehicle>
    <vehicle id="veh118" type="veh_passenger" depart="129.14" departLane="best" departSpeed="max">
        <route edges="153393977#0 153393977#0-AddedOffRampEdge 322880373 522870947 512635985 536505442 322880364#1 322880364#2 322880364#3"/>
    </vehicle>
    <vehicle id="veh123" type="veh_passenger" depart="134.61" departLane="best" departSpeed="max">
        <route edges="153393977#0 153393977#0-AddedOffRampEdge 322880373 522870947 512635985 536505442 322880364#1 322880364#2 322880364#3 322880364#4 373345192#1 322882118 536505441"/>
    </vehicle>
    <vehicle id="veh125" type="veh_passenger" depart="136.80" departLane="best" departSpeed="max">
        <route edges="514898523 514898523-AddedOffRampEdge 514898511 514898510#1-AddedOnRampEdge 514898510#1"/>
    </vehicle>
    <vehicle id="veh126" type="veh_passenger" depart="137.90" departLane="best" departSpeed="max">
        <route edges="463595577 463595577-AddedOffRampEdge 707032741 522870943 322882116 536505446 322880364#3 322880364#4 373345192#1 373345192#2 373345192#3 536505443 707032745"/>
    </vehicle>
    <vehicle id="veh128" type="veh_passenger" depart="140.09" departLane="best" departSpeed="max">
        <route edges="514898523 514898523-AddedOffRampEdge 522870936 707032739 322882119 536505440 373345192#3 373345192#4 322880364#1 322880364#2 322880364#3 322882115 707032743 153393977#2 153393977#3"/>
    </vehicle>
    <vehicle id="veh130" type="veh_passenger" depart="142.27" departLane="best">
        <route edges="-410955772#1 -410955772#0 -83745276#2 -83745276#1 -83745276#0 -406279098#0 -406050183"/>
    </vehicle>
    <vehicle id="veh131" type="veh_passenger" depart="143.37" departLane="best">
        <route edges="-406044545#0 406044545#0 406044545#1 406044543#0 406044543#1 406044543#2 406044543#3 103326866 32637902#1 419921871"/>
    </vehicle>
    <vehicle id="veh132" type="veh_passenger" depart="144.46" departLane="best">
        <route edges="153393977#0-AddedOffRampEdge 322880373 522870947 512635985 536505442 322880364#1 322880364#2 322880364#3 322880364#4 373345192#1 373345192#2 373345192#3 536505443 707032745 322880368 46491492#3-AddedOnRampEdge 46491492#3"/>
    </vehicle>
    <vehicle id="veh134" type="veh_passenger" depart="146.65" departLane="best" departSpeed="max">
        <route edges="463595577 463595577-AddedOffRampEdge 707032741 522870943 449066486 707032743 153393977#2 153393977#3"/>
    </vehicle>
    <vehicle id="veh137" type="veh_passenger" depart="149.94" departLane="best">
        <route edges="322882115 707032743 153393977#2 153393977#3"/>
    </vehicle>
    <vehicle id="veh139" type="veh_passenger" depart="152.12" departLane="best" departSpeed="max">
        <route edges="463595577 463595577-AddedOffRampEdge 707032741 522870943 449066486 707032743 153393977#2 153393977#3"/>
    </vehicle>
    <vehicle id="veh145" type="veh_passenger" depart="158.69" departLane="best">
        <route edges="-418786071 418786071 418786073#1 -410955772#0 -83745276#2 -83745276#1 -83745276#0 -406279098#0"/>
    </vehicle>
    <vehicle id="veh147" type="veh_passenger" depart="160.88" departLane="best">
        <route edges="514898512#1"/>
    </vehicle>
    <vehicle id="veh151" type="veh_passenger" depart="165.26" departLane="best">
        <route edges="322880368 46491492#3-AddedOnRampEdge 46491492#3"/>
    </vehicle>
    <vehicle id="veh153" type="veh_passenger" depart="167.45" departLane="best" departSpeed="max">
        <route edges="514898523 514898523-AddedOffRampEdge 522870936 707032739 322882119 536505440 373345192#3 373345192#4 322880364#1 322880364#2 322880364#3 322882115 707032743"/>
    </vehicle>
    <vehicle id="veh154" type="veh_passenger" depart="168.54" departLane="best" departSpeed="max">
        <route edges="514898523 514898523-AddedOffRampEdge"/>
    </vehicle>
    <vehicle id="veh157" type="veh_passenger" depart="171.82" departLane="best" departSpeed="max">
        <route edges="514898523 514898523-AddedOffRampEdge 522870936 707032739 322882119 536505440 373345192#3 373345192#4 322880364#1 322880364#2 322880364#3 322882115 707032743 153393977#2 153393977#3"/>
    </vehicle>
    <vehicle id="veh159" type="veh_passenger" depart="174.01" departLane="best" departSpeed="max">
        <route edges="153393977#0 153393977#0-AddedOffRampEdge 322880373 522870947 512635985 536505442 322880364#1 322880364#2 322880364#3 322880364#4 373345192#1 322882118 536505441 707032740 514898512#1-AddedOnRampEdge 514898512#1"/>
    </vehicle>
    <vehicle id="veh160" type="veh_passenger" depart="175.11" departLane="best">
        <route edges="373345192#3 373345192#4 322880364#1 322880364#2 322880364#3 322882115 707032743 153393977#2 153393977#3"/>
    </vehicle>
    <vehicle id="veh165" type="veh_passenger" depart="180.58" departLane="best">
        <route edges="463595577-AddedOffRampEdge 707032741 522870943 322882116 536505446 322880364#3 322880364#4"/>
    </vehicle>
    <vehicle id="veh169" type="veh_passenger" depart="184.96" departLane="best">
        <route edges="707032739 322882119 536505440 373345192#3 373345192#4 322880364#1 322880364#2 322880364#3 322882115 707032743 153393977#2 153393977#3"/>
    </vehicle>
    <vehicle id="veh174" type="veh_passenger" depart="190.43" departLane="best" departSpeed="max">
        <route edges="153393977#0 153393977#0-AddedOffRampEdge 322880373 522870947 449066487 536505447 514898510#1-AddedOnRampEdge 514898510#1"/>
    </vehicle>
    <vehicle id="veh177" type="veh_passenger" depart="193.71" departLane="best" departSpeed="max">
        <route edges="47097747 46491492#1 46491492#2 46491492#3-AddedOnRampEdge 46491492#3"/>
    </vehicle>
    <vehicle id="veh178" type="veh_passenger" depart="194.81" departLane="best">
        <route edges="278568487#0 -278568483 406044545#0 406044545#1 406044543#0 406044543#1 406044543#2 406044543#3 103326866 -32637902#0"/>
    </vehicle>
    <vehicle id="veh181" type="veh_passenger" depart="198.09" departLane="best" departSpeed="max">
        <route edges="47097747 46491492#1 707032744 322880371 512635988 536505445 373345192#1 373345192#2 373345192#3 373345192#4 322880364#1 322880364#2 322880364#3 322882115 707032743 153393977#2 153393977#3"/>
    </vehicle>
    <vehicle id="veh183" type="veh_passenger" depart="200.28" departLane="best">
        <route edges="322880364#4 373345192#1 373345192#2 373345192#3 373345192#4 322880364#1 322880364#2 322880364#3 322882115 707032743 153393977#2 153393977#3"/>
    </vehicle>
    <vehicle id="veh185" type="veh_passenger" depart="202.47" departLane="best">
        <route edges="536505442 322880364#1 322880364#2 322880364#3 322880364#4 373345192#1 373345192#2 373345192#3 536505443 707032745 322880368 46491492#3-AddedOnRampEdge"/>
    </vehicle>
    <vehicle id="veh186" type="veh_passenger" depart="203.56" departLane="best">
        <route edges="522870947 512635985 536505442 322880364#1 322880364#2 322880364#3 322880364#4 373345192#1 373345192#2 373345192#3 536505443 707032745 322880368 46491492#3-AddedOnRampEdge 46491492#3"/>
    </vehicle>
    <vehicle id="veh190" type="veh_passenger" depart="207.94" departLane="best">
        <route edges="46491492#1 707032744 322880371 512635988 536505445 373345192#1 373345192#2 373345192#3 373345192#4"/>
    </vehicle>
    <vehicle id="veh196" type="veh_passenger" depart="214.51" departLane="best" departSpeed="max">
        <route edges="514898523 514898523-AddedOffRampEdge 514898511 514898510#1-AddedOnRampEdge 514898510#1"/>
    </vehicle>
    <vehicle id="veh201" type="veh_passenger" depart="219.98" departLane="best">
        <route edges="322880371 512635988 536505445 373345192#1 373345192#2 373345192#3 536505443 707032745 322880368 46491492#3-AddedOnRampEdge 46491492#3"/>
    </vehicle>
    <vehicle id="veh205" type="veh_passenger" depart="224.36" departLane="best" departSpeed="max">
        <route edges="47097747 46491492#1 707032744 322880371 512635988 536505445 373345192#1 373345192#2 373345192#3 373345192#4 322880364#1 322882117 536505447 514898510#1-AddedOnRampEdge 514898510#1"/>
    </vehicle>
    <vehicle id="veh209" type="veh_passenger" depart="228.73" departLane="best" departSpeed="max">
        <route edges="153393977#0 153393977#0-AddedOffRampEdge 322880373 522870947 512635985 536505442 322880364#1 322880364#2 322880364#3 322880364#4 373345192#1 322882118 536505441 707032740 514898512#1-AddedOnRampEdge 514898512#1"/>
    </vehicle>
    <vehicle id="veh210" type="veh_passenger" depart="229.83" departLane="best">
        <route edges="373345192#3 373345192#4 322880364#1 322880364#2 322880364#3 322880364#4 373345192#1 322882118 536505441 707032740 514898512#1-AddedOnRampEdge 514898512#1"/>
    </vehicle>
    <vehicle id="veh212" type="veh_passenger" depart="232.02" departLane="best" departSpeed="max">
        <route edges="463595577 463595577-AddedOffRampEdge 707032741 522870943 322882116 536505446"/>
    </vehicle>
    <vehicle id="veh213" type="veh_passenger" depart="233.11" departLane="best">
        <route edges="522870936 707032739 449066484 707032745 322880368 46491492#3-AddedOnRampEdge 46491492#3"/>
    </vehicle>
    <vehicle id="veh216" type="veh_passenger" depart="236.39" departLane="best">
        <route edges="522870943 322882116 536505446 322880364#3 322880364#4 373345192#1 373345192#2 373345192#3 373345192#4 322880364#1 322882117 536505447 514898510#1-AddedOnRampEdge 514898510#1"/>
    </vehicle>
    <vehicle id="veh219" type="veh_passenger" depart="239.68" departLane="best" departSpeed="max">
        <route edges="463595577 463595577-AddedOffRampEdge 707032741 522870943 449066486 707032743 153393977#2 153393977#3"/>
    </vehicle>
    <vehicle id="veh223" type="veh_passenger" depart="244.06" departLane="best" departSpeed="max">
        <route edges="153393977#0 153393977#0-AddedOffRampEdge 322880373 522870947 512635985"/>
    </vehicle>
    <vehicle id="veh229" type="veh_passenger" depart="250.62" departLane="best" departSpeed="max">
        <route edges="514898523 514898523-AddedOffRampEdge 514898511 514898510#1-AddedOnRampEdge 514898510#1"/>
    </vehicle>
    <vehicle id="veh232" type="veh_passenger" depart="253.90" departLane="best" departSpeed="max">
        <route edges="514898523 514898523-AddedOffRampEdge 522870936 707032739 322882119 536505440 373345192#3 373345192#4 322880364#1 322882117 536505447"/>
    </vehicle>
    <vehicle id="veh233" type="veh_passenger" depart="255.00" departLane="best">
        <route edges="322880373 522870947 449066487 536505447 514898510#1-AddedOnRampEdge 514898510#1"/>
    </vehicle>
    <vehicle id="veh235" type="veh_passenger" depart="257.19" departLane="best" departSpeed="max">
        <route edges="153393977#0 153393977#0-AddedOffRampEdge 153393977#1"/>
    </vehicle>
    <vehicle id="veh247" type="veh_passenger" depart="270.32" departLane="best" departSpeed="max">
        <route edges="47097747 46491492#1 707032744 322880371 449066485 536505441 707032740 514898512#1-AddedOnRampEdge 514898512#1"/>
    </vehicle>
    <vehicle id="veh250" type="veh_passenger" depart="273.60" departLane="best">
        <route edges="46491492#1 707032744 322880371 512635988 536505445 373345192#1 373345192#2 373345192#3 373345192#4 322880364#1 322882117 536505447 514898510#1-AddedOnRampEdge"/>
    </vehicle>
    <vehicle id="veh251" type="veh_passenger" depart="274.70" departLane="best">
        <route edges="46491492#1 707032744 322880371 512635988 536505445 373345192#1 373345192#2 373345192#3 373345192#4 322880364#1 322882117 536505447 514898510#1-AddedOnRampEdge 514898510#1"/>
    </vehicle>
    <vehicle id="veh256" type="veh_passenger" depart="280.17" departLane="best" departSpeed="max">
        <route edges="47097747 46491492#1 707032744 322880371 512635988 536505445 373345192#1 373345192#2 373345192#3 373345192#4 322880364#1 322882117 536505447 514898510#1-AddedOnRampEdge 514898510#1"/>
    </vehicle>
    <vehicle id="veh259" type="veh_passenger" depart="283.45" departLane="best" departSpeed="max">
        <route edges="514898523 514898523-AddedOffRampEdge 522870936 707032739"/>
    </vehicle>
    <vehicle id="veh260" type="veh_passenger" depart="284.55" departLane="best">
        <route edges="-406044545#1 406044545#1 406044543#0 406044543#1 406044543#2 278568481#0 278568481#1 -278568481#1"/>
    </vehicle>
    <vehicle id="veh264" type="veh_passenger" depart="288.93" departLane="best" departSpeed="max">
        <route edges="47097747 46491492#1 46491492#2 46491492#3-AddedOnRampEdge 46491492#3"/>
    </vehicle>
    <vehicle id="veh270" type="veh_passenger" depart="295.49" departLane="best">
        <route edges="406044545#1 406044543#0 406044543#1 406044543#2 278568481#0 278568481#1 278568481#2 278568481#3"/>
    </vehicle>
    <vehicle id="veh272" type="veh_passenger" depart="297.68" departLane="best" departSpeed="max">
        <route edges="463595577 463595577-AddedOffRampEdge 536457457 514898512#1-AddedOnRampEdge 514898512#1"/>
    </vehicle>
    <vehicle id="veh274" type="veh_passenger" depart="299.87" departLane="best" departSpeed="max">
        <route edges="47097747 46491492#1 707032744 322880371 449066485 536505441 707032740"/>
    </vehicle>
    <vehicle id="veh275" type="veh_passenger" depart="300.96" departLane="best">
        <route edges="153393977#0-AddedOffRampEdge 322880373 522870947 512635985 536505442 322880364#1 322880364#2 322880364#3 322880364#4 373345192#1 322882118 536505441 707032740 514898512#1-AddedOnRampEdge 514898512#1"/>
    </vehicle>
    <vehicle id="veh277" type="veh_passenger" depart="303.15" departLane="best">
        <route edges="322882119 536505440 373345192#3 373345192#4 322880364#1 322882117 536505447 514898510#1-AddedOnRampEdge 514898510#1"/>
    </vehicle>
    <vehicle id="veh278" type="veh_passenger" depart="304.25" departLane="best">
        <route edges="153393977#0-AddedOffRampEdge 322880373 522870947 512635985 536505442 322880364#1 322880364#2 322880364#3 322880364#4 373345192#1 322882118 536505441 707032740 514898512#1-AddedOnRampEdge 514898512#1"/>
    </vehicle>
    <vehicle id="veh280" type="veh_passenger" depart="306.44" departLane="best">
        <route edges="514898523-AddedOffRampEdge 522870936 707032739 322882119 536505440 373345192#3 373345192#4 322880364#1 322880364#2 322880364#3 322882115 707032743 153393977#2 153393977#3"/>
    </vehicle>
    <vehicle id="veh281" type="veh_passenger" depart="307.53" departLane="best">
        <route edges="373345192#4 322880364#1 322880364#2 322880364#3 322880364#4 373345192#1 373345192#2 373345192#3 536505443 707032745 322880368 46491492#3-AddedOnRampEdge 46491492#3"/>
    </vehicle>
    <vehicle id="veh284" type="veh_passenger" depart="310.81" departLane="best" departSpeed="max">
        <route edges="153393977#0 153393977#0-AddedOffRampEdge 322880373 522870947 512635985 536505442 322880364#1 322880364#2 322880364#3 322880364#4 373345192#1 322882118 536505441 707032740 514898512#1-AddedOnRampEdge 514898512#1"/>
    </vehicle>
    <vehicle id="veh286" type="veh_passenger" depart="313.00" departLane="best" departSpeed="max">
        <route edges="47097747 46491492#1 707032744 322880371 512635988 536505445 373345192#1 373345192#2 373345192#3 373345192#4 322880364#1 322880364#2 322880364#3 322882115 707032743 153393977#2 153393977#3"/>
    </vehicle>
    <vehicle id="veh290" type="veh_passenger" depart="317.38" departLane="best" departSpeed="max">
        <route edges="47097747 46491492#1 46491492#2 46491492#3-AddedOnRampEdge 46491492#3"/>
    </vehicle>
    <vehicle id="veh297" type="veh_passenger" depart="325.04" departLane="best" departSpeed="max">
        <route edges="47097747 46491492#1 707032744 322880371 512635988 536505445 373345192#1 373345192#2 373345192#3 373345192#4 322880364#1 322880364#2 322880364#3 322882115 707032743 153393977#2 153393977#3"/>
    </vehicle>
    <vehicle id="veh299" type="veh_passenger" depart="327.23" departLane="best">
        <route edges="-83745276#2 -83745276#1 -83745276#0 -406279098#0 406279094 -406279094"/>
    </vehicle>
    <vehicle id="veh304" type="veh_passenger" depart="332.70" departLane="best">
        <route edges="-524933612 -278568481#2 -278568481#1 -278568481#0 406044543#3 103326866 32637902#1 -178226405"/>
    </vehicle>
    <vehicle id="veh310" type="veh_passenger" depart="339.27" departLane="best">
        <route edges="406043290 406043293#1 406044545#0 406044545#1 406044543#0 406044543#1 406044543#2 406044543#3 103326866 32637902#1"/>
    </vehicle>
    <vehicle id="veh313" type="veh_passenger" depart="342.55" departLane="best" departSpeed="max">
        <route edges="514898523 514898523-AddedOffRampEdge 522870936 707032739 322882119 536505440 373345192#3 373345192#4 322880364#1 322880364#2 322880364#3 322880364#4"/>
    </vehicle>
    <vehicle id="veh316" type="veh_passenger" depart="345.84" departLane="best">
        <route edges="449066486 707032743 153393977#2 153393977#3"/>
    </vehicle>
    <vehicle id="veh317" type="veh_passenger" depart="346.93" departLane="best">
        <route edges="83745276#2 -83745276#2 -83745276#1 -83745276#0 -406279098#0 406279094 -406279094"/>
    </vehicle>
    <vehicle id="veh321" type="veh_passenger" depart="351.31" departLane="best">
        <route edges="373345192#1 322882118 536505441 707032740 514898512#1-AddedOnRampEdge 514898512#1"/>
    </vehicle>
    <vehicle id="veh323" type="veh_passenger" depart="353.50" departLane="best" departSpeed="max">
        <route edges="463595577 463595577-AddedOffRampEdge 707032741 522870943 322882116 536505446 322880364#3 322880364#4 373345192#1 373345192#2 373345192#3 536505443 707032745 322880368 46491492#3-AddedOnRampEdge 46491492#3"/>
    </vehicle>
    <vehicle id="veh324" type="veh_passenger" depart="354.59" departLane="best" departSpeed="max">
        <route edges="47097747 46491492#1 707032744 322880371 512635988 536505445"/>
    </vehicle>
    <vehicle id="veh325" type="veh_passenger" depart="355.69" departLane="best" departSpeed="max">
        <route edges="153393977#0 153393977#0-AddedOffRampEdge"/>
    </vehicle>
    <vehicle id="veh327" type="veh_passenger" depart="357.87" departLane="best">
        <route edges="-524933610 524933610 -278568481#3 -278568481#2 -278568481#1 -278568481#0 406044543#3 103326866 32637902#1 -32637902#1"/>
    </vehicle>
    <vehicle id="veh329" type="veh_passenger" depart="360.06" departLane="best" departSpeed="max">
        <route edges="463595577 463595577-AddedOffRampEdge 707032741 522870943 449066486 707032743 153393977#2 153393977#3"/>
    </vehicle>
    <vehicle id="veh330" type="veh_passenger" depart="361.16" departLane="best" departSpeed="max">
        <route edges="153393977#0 153393977#0-AddedOffRampEdge 322880373 522870947 449066487 536505447 514898510#1-AddedOnRampEdge 514898510#1"/>
    </vehicle>
    <vehicle id="veh331" type="veh_passenger" depart="362.25" departLane="best" departSpeed="max">
        <route edges="47097747 46491492#1 707032744 322880371 512635988 536505445 373345192#1 373345192#2"/>
    </vehicle>
    <vehicle id="veh343" type="veh_passenger" depart="375.39" departLane="best">
        <route edges="406044543#2 -406044543#2 -406044543#1 -406044543#0 -406044545#1 -406044545#0 -406043293#1"/>
    </vehicle>
    <vehicle id="veh352" type="veh_passenger" depart="385.23" departLane="best" departSpeed="max">
        <route edges="463595577 463595577-AddedOffRampEdge 707032741 522870943 322882116 536505446 322880364#3 322880364#4 373345192#1 373345192#2 373345192#3 536505443 707032745 322880368 46491492#3-AddedOnRampEdge 46491492#3"/>
    </vehicle>
    <vehicle id="veh353" type="veh_passenger" depart="386.33" departLane="best">
        <route edges="278568481#5 -278568485#0 -278568481#4 -278568481#3 -278568481#2 -278568481#1 -278568481#0 278568481#0"/>
    </vehicle>
    <vehicle id="veh361" type="veh_passenger" depart="395.08" departLane="best">
        <route edges="707032745 322880368 46491492#3-AddedOnRampEdge 46491492#3"/>
    </vehicle>
    <vehicle id="veh364" type="veh_passenger" depart="398.37" departLane="best">
        <route edges="512635985 536505442 322880364#1 322880364#2 322880364#3 322880364#4 373345192#1 373345192#2 373345192#3 536505443 707032745 322880368 46491492#3-AddedOnRampEdge 46491492#3"/>
    </vehicle>
    <vehicle id="veh369" type="veh_passenger" depart="403.84" departLane="best" departSpeed="max">
        <route edges="463595577 463595577-AddedOffRampEdge 707032741 522870943 449066486 707032743 153393977#2 153393977#3"/>
    </vehicle>
    <vehicle id="veh371" type="veh_passenger" depart="406.03" departLane="best">
        <route edges="419921871 -419921871 -32637902#1 -32637902#0 -419899674 -406044543#2 -406044543#1 -406044543#0 -406044540 -406044541"/>
    </vehicle>
    <vehicle id="veh376" type="veh_passenger" depart="411.50" departLane="best">
        <route edges="153393977#0-AddedOffRampEdge 322880373 522870947 512635985 536505442 322880364#1 322880364#2 322880364#3 322880364#4 373345192#1 322882118 536505441 707032740 514898512#1-AddedOnRampEdge 514898512#1"/>
    </vehicle>
    <vehicle id="veh377" type="veh_passenger" depart="412.60" departLane="best">