<?xml version="1.0" encoding="UTF-8"?>

<!-- generated on Mon Feb  3 13:35:13 2020 by Eclipse SUMO duarouter Version 1.4.0
<configuration xmlns:xsi="http://www.w3.org/2001/XMLSchema-instance" xsi:noNamespaceSchemaLocation="http://sumo.dlr.de/xsd/duarouterConfiguration.xsd">

    <input>
        <net-file value="/home/conor/Desktop/Desktop/named-data/sumo-sims/athenry/2020-02-03-13-35-10/osm.net.xml"/>
        <route-files value="/home/conor/Desktop/Desktop/named-data/sumo-sims/athenry/2020-02-03-13-35-10/osm.passenger.trips.xml"/>
    </input>

    <output>
        <output-file value="/home/conor/Desktop/Desktop/named-data/sumo-sims/athenry/2020-02-03-13-35-10/osm.passenger.trips.xml.tmp"/>
        <write-trips value="true"/>
    </output>

    <time>
        <begin value="0"/>
        <end value="3600.0"/>
    </time>

    <report>
        <no-warnings value="true"/>
        <ignore-errors value="true"/>
        <no-step-log value="true"/>
    </report>

</configuration>
-->

<routes xmlns:xsi="http://www.w3.org/2001/XMLSchema-instance" xsi:noNamespaceSchemaLocation="http://sumo.dlr.de/xsd/routes_file.xsd">
    <vType id="veh_passenger" vClass="passenger"/>
    <trip id="veh1" type="veh_passenger" depart="1.09" departLane="best" from="153393977#0-AddedOffRampEdge" to="153393977#2"/>
    <trip id="veh2" type="veh_passenger" depart="2.19" departLane="best" departSpeed="max" from="47097747" to="46491492#3-AddedOnRampEdge"/>
    <trip id="veh17" type="veh_passenger" depart="18.61" departLane="best" departSpeed="max" from="514898523" to="46491492#3"/>
    <trip id="veh20" type="veh_passenger" depart="21.89" departLane="best" departSpeed="max" from="153393977#0" to="153393977#3"/>
    <trip id="veh25" type="veh_passenger" depart="27.36" departLane="best" departSpeed="max" from="153393977#0" to="536505441"/>
    <trip id="veh26" type="veh_passenger" depart="28.45" departLane="best" from="463595577-AddedOffRampEdge" to="46491492#3"/>
    <trip id="veh29" type="veh_passenger" depart="31.74" departLane="best" from="707032745" to="46491492#3"/>
    <trip id="veh31" type="veh_passenger" depart="33.93" departLane="best" departSpeed="max" from="514898523" to="514898510#1-AddedOnRampEdge"/>
    <trip id="veh34" type="veh_passenger" depart="37.21" departLane="best" departSpeed="max" from="153393977#0" to="536505443"/>
    <trip id="veh36" type="veh_passenger" depart="39.40" departLane="best" from="46491492#1" to="322880364#3"/>
    <trip id="veh38" type="veh_passenger" depart="41.59" departLane="best" departSpeed="max" from="153393977#0" to="153393977#3"/>
    <trip id="veh40" type="veh_passenger" depart="43.78" departLane="best" departSpeed="max" from="463595577" to="522870943"/>
    <trip id="veh43" type="veh_passenger" depart="47.06" departLane="best" from="-406044541" to="-278568485#0"/>
    <trip id="veh47" type="veh_passenger" depart="51.44" departLane="best" from="83745276#2" to="410955772#1"/>
    <trip id="veh48" type="veh_passenger" depart="52.53" departLane="best" from="707032741" to="514898512#1"/>
    <trip id="veh52" type="veh_passenger" depart="56.91" departLane="best" from="373345192#2" to="536505447"/>
    <trip id="veh53" type="veh_passenger" depart="58.00" departLane="best" departSpeed="max" from="514898523" to="153393977#3"/>
    <trip id="veh54" type="veh_passenger" depart="59.10" departLane="best" from="406044545#0" to="-524933612"/>
    <trip id="veh62" type="veh_passenger" depart="67.85" departLane="best" from="514898523-AddedOffRampEdge" to="514898512#1"/>
    <trip id="veh76" type="veh_passenger" depart="83.18" departLane="best" departSpeed="max" from="153393977#0" to="153393977#1"/>
    <trip id="veh78" type="veh_passenger" depart="85.36" departLane="best" departSpeed="max" from="153393977#0" to="522870947"/>
    <trip id="veh85" type="veh_passenger" depart="93.03" departLane="best" departSpeed="max" from="47097747" to="46491492#3"/>
    <trip id="veh88" type="veh_passenger" depart="96.31" departLane="best" departSpeed="max" from="514898523" to="153393977#3"/>
    <trip id="veh90" type="veh_passenger" depart="98.50" departLane="best" from="322882115" to="153393977#3"/>
    <trip id="veh92" type="veh_passenger" depart="100.69" departLane="best" from="373345192#1" to="514898512#1-AddedOnRampEdge"/>
    <trip id="veh99" type="veh_passenger" depart="108.35" departLane="best" from="322880364#1" to="707032745"/>
    <trip id="veh100" type="veh_passenger" depart="109.44" departLane="best" departSpeed="max" from="153393977#0" to="514898510#1-AddedOnRampEdge"/>
    <trip id="veh101" type="veh_passenger" depart="110.54" departLane="best" from="373345192#3" to="322882115"/>
    <trip id="veh111" type="veh_passenger" depart="121.48" departLane="best" departSpeed="max" from="463595577" to="46491492#3-AddedOnRampEdge"/>
    <trip id="veh113" type="veh_passenger" depart="123.67" departLane="best" from="522870936" to="153393977#3"/>
    <trip id="veh114" type="veh_passenger" depart="124.76" departLane="best" departSpeed="max" from="463595577" to="46491492#3"/>
    <trip id="veh117" type="veh_passenger" depart="128.05" departLane="best" departSpeed="max" from="153393977#0" to="514898510#1"/>
    <trip id="veh118" type="veh_passenger" depart="129.14" departLane="best" departSpeed="max" from="153393977#0" to="322880364#3"/>
    <trip id="veh123" type="veh_passenger" depart="134.61" departLane="best" departSpeed="max" from="153393977#0" to="536505441"/>
    <trip id="veh125" type="veh_passenger" depart="136.80" departLane="best" departSpeed="max" from="514898523" to="514898510#1"/>
    <trip id="veh126" type="veh_passenger" depart="137.90" departLane="best" departSpeed="max" from="463595577" to="707032745"/>
    <trip id="veh128" type="veh_passenger" depart="140.09" departLane="best" departSpeed="max" from="514898523" to="153393977#3"/>
    <trip id="veh130" type="veh_passenger" depart="142.27" departLane="best" from="-410955772#1" to="-406050183"/>
    <trip id="veh131" type="veh_passenger" depart="143.37" departLane="best" from="-406044545#0" to="419921871"/>
    <trip id="veh132" type="veh_passenger" depart="144.46" departLane="best" from="153393977#0-AddedOffRampEdge" to="46491492#3"/>
    <trip id="veh134" type="veh_passenger" depart="146.65" departLane="best" departSpeed="max" from="463595577" to="153393977#3"/>
    <trip id="veh137" type="veh_passenger" depart="149.94" departLane="best" from="322882115" to="153393977#3"/>
    <trip id="veh139" type="veh_passenger" depart="152.12" departLane="best" departSpeed="max" from="463595577" to="153393977#3"/>
    <trip id="veh145" type="veh_passenger" depart="158.69" departLane="best" from="-418786071" to="-406279098#0"/>
    <trip id="veh147" type="veh_passenger" depart="160.88" departLane="best" from="514898512#1" to="514898512#1"/>
    <trip id="veh151" type="veh_passenger" depart="165.26" departLane="best" from="322880368" to="46491492#3"/>
    <trip id="veh153" type="veh_passenger" depart="167.45" departLane="best" departSpeed="max" from="514898523" to="707032743"/>
    <trip id="veh154" type="veh_passenger" depart="168.54" departLane="best" departSpeed="max" from="514898523" to="514898523-AddedOffRampEdge"/>
    <trip id="veh157" type="veh_passenger" depart="171.82" departLane="best" departSpeed="max" from="514898523" to="153393977#3"/>
    <trip id="veh159" type="veh_passenger" depart="174.01" departLane="best" departSpeed="max" from="153393977#0" to="514898512#1"/>
    <trip id="veh160" type="veh_passenger" depart="175.11" departLane="best" from="373345192#3" to="153393977#3"/>
    <trip id="veh165" type="veh_passenger" depart="180.58" departLane="best" from="463595577-AddedOffRampEdge" to="322880364#4"/>
    <trip id="veh169" type="veh_passenger" depart="184.96" departLane="best" from="707032739" to="153393977#3"/>
    <trip id="veh174" type="veh_passenger" depart="190.43" departLane="best" departSpeed="max" from="153393977#0" to="514898510#1"/>
    <trip id="veh177" type="veh_passenger" depart="193.71" departLane="best" departSpeed="max" from="47097747" to="46491492#3"/>
    <trip id="veh178" type="veh_passenger" depart="194.81" departLane="best" from="278568487#0" to="-32637902#0"/>
    <trip id="veh181" type="veh_passenger" depart="198.09" departLane="best" departSpeed="max" from="47097747" to="153393977#3"/>
    <trip id="veh183" type="veh_passenger" depart="200.28" departLane="best" from="322880364#4" to="153393977#3"/>
    <trip id="veh185" type="veh_passenger" depart="202.47" departLane="best" from="536505442" to="46491492#3-AddedOnRampEdge"/>
    <trip id="veh186" type="veh_passenger" depart="203.56" departLane="best" from="522870947" to="46491492#3"/>
    <trip id="veh190" type="veh_passenger" depart="207.94" departLane="best" from="46491492#1" to="373345192#4"/>
    <trip id="veh196" type="veh_passenger" depart="214.51" departLane="best" departSpeed="max" from="514898523" to="514898510#1"/>
    <trip id="veh201" type="veh_passenger" depart="219.98" departLane="best" from="322880371" to="46491492#3"/>
    <trip id="veh205" type="veh_passenger" depart="224.36" departLane="best" departSpeed="max" from="47097747" to="514898510#1"/>
    <trip id="veh209" type="veh_passenger" depart="228.73" departLane="best" departSpeed="max" from="153393977#0" to="514898512#1"/>
    <trip id="veh210" type="veh_passenger" depart="229.83" departLane="best" from="373345192#3" to="514898512#1"/>
    <trip id="veh212" type="veh_passenger" depart="232.02" departLane="best" departSpeed="max" from="463595577" to="536505446"/>
    <trip id="veh213" type="veh_passenger" depart="233.11" departLane="best" from="522870936" to="46491492#3"/>
    <trip id="veh216" type="veh_passenger" depart="236.39" departLane="best" from="522870943" to="514898510#1"/>
    <trip id="veh219" type="veh_passenger" depart="239.68" departLane="best" departSpeed="max" from="463595577" to="153393977#3"/>
    <trip id="veh223" type="veh_passenger" depart="244.06" departLane="best" departSpeed="max" from="153393977#0" to="512635985"/>
    <trip id="veh229" type="veh_passenger" depart="250.62" departLane="best" departSpeed="max" from="514898523" to="514898510#1"/>
    <trip id="veh232" type="veh_passenger" depart="253.90" departLane="best" departSpeed="max" from="514898523" to="536505447"/>
    <trip id="veh233" type="veh_passenger" depart="255.00" departLane="best" from="322880373" to="514898510#1"/>
    <trip id="veh235" type="veh_passenger" depart="257.19" departLane="best" departSpeed="max" from="153393977#0" to="153393977#1"/>
    <trip id="veh247" type="veh_passenger" depart="270.32" departLane="best" departSpeed="max" from="47097747" to="514898512#1"/>
    <trip id="veh250" type="veh_passenger" depart="273.60" departLane="best" from="46491492#1" to="514898510#1-AddedOnRampEdge"/>
    <trip id="veh251" type="veh_passenger" depart="274.70" departLane="best" from="46491492#1" to="514898510#1"/>
    <trip id="veh256" type="veh_passenger" depart="280.17" departLane="best" departSpeed="max" from="47097747" to="514898510#1"/>
    <trip id="veh259" type="veh_passenger" depart="283.45" departLane="best" departSpeed="max" from="514898523" to="707032739"/>
    <trip id="veh260" type="veh_passenger" depart="284.55" departLane="best" from="-406044545#1" to="-278568481#1"/>
    <trip id="veh264" type="veh_passenger" depart="288.93" departLane="best" departSpeed="max" from="47097747" to="46491492#3"/>
    <trip id="veh270" type="veh_passenger" depart="295.49" departLane="best" from="406044545#1" to="278568481#3"/>
    <trip id="veh272" type="veh_passenger" depart="297.68" departLane="best" departSpeed="max" from="463595577" to="514898512#1"/>
    <trip id="veh274" type="veh_passenger" depart="299.87" departLane="best" departSpeed="max" from="47097747" to="707032740"/>
    <trip id="veh275" type="veh_passenger" depart="300.96" departLane="best" from="153393977#0-AddedOffRampEdge" to="514898512#1"/>
    <trip id="veh277" type="veh_passenger" depart="303.15" departLane="best" from="322882119" to="514898510#1"/>
    <trip id="veh278" type="veh_passenger" depart="304.25" departLane="best" from="153393977#0-AddedOffRampEdge" to="514898512#1"/>
    <trip id="veh280" type="veh_passenger" depart="306.44" departLane="best" from="514898523-AddedOffRampEdge" to="153393977#3"/>
    <trip id="veh281" type="veh_passenger" depart="307.53" departLane="best" from="373345192#4" to="46491492#3"/>
    <trip id="veh284" type="veh_passenger" depart="310.81" departLane="best" departSpeed="max" from="153393977#0" to="514898512#1"/>
    <trip id="veh286" type="veh_passenger" depart="313.00" departLane="best" departSpeed="max" from="47097747" to="153393977#3"/>
    <trip id="veh290" type="veh_passenger" depart="317.38" departLane="best" departSpeed="max" from="47097747" to="46491492#3"/>
    <trip id="veh297" type="veh_passenger" depart="325.04" departLane="best" departSpeed="max" from="47097747" to="153393977#3"/>
    <trip id="veh299" type="veh_passenger" depart="327.23" departLane="best" from="-83745276#2" to="-406279094"/>
    <trip id="veh304" type="veh_passenger" depart="332.70" departLane="best" from="-524933612" to="-178226405"/>
    <trip id="veh310" type="veh_passenger" depart="339.27" departLane="best" from="406043290" to="32637902#1"/>
    <trip id="veh313" type="veh_passenger" depart="342.55" departLane="best" departSpeed="max" from="514898523" to="322880364#4"/>
    <trip id="veh316" type="veh_passenger" depart="345.84" departLane="best" from="449066486" to="153393977#3"/>
    <trip id="veh317" type="veh_passenger" depart="346.93" departLane="best" from="83745276#2" to="-406279094"/>
    <trip id="veh321" type="veh_passenger" depart="351.31" departLane="best" from="373345192#1" to="514898512#1"/>
    <trip id="veh323" type="veh_passenger" depart="353.50" departLane="best" departSpeed="max" from="463595577" to="46491492#3"/>
    <trip id="veh324" type="veh_passenger" depart="354.59" departLane="best" departSpeed="max" from="47097747" to="536505445"/>
    <trip id="veh325" type="veh_passenger" depart="355.69" departLane="best" departSpeed="max" from="153393977#0" to="153393977#0-AddedOffRampEdge"/>
    <trip id="veh327" type="veh_passenger" depart="357.87" departLane="best" from="-524933610" to="-32637902#1"/>
    <trip id="veh329" type="veh_passenger" depart="360.06" departLane="best" departSpeed="max" from="463595577" to="153393977#3"/>
    <trip id="veh330" type="veh_passenger" depart="361.16" departLane="best" departSpeed="max" from="153393977#0" to="514898510#1"/>
    <trip id="veh331" type="veh_passenger" depart="362.25" departLane="best" departSpeed="max" from="47097747" to="373345192#2"/>
    <trip id="veh343" type="veh_passenger" depart="375.39" departLane="best" from="406044543#2" to="-406043293#1"/>
    <trip id="veh352" type="veh_passenger" depart="385.23" departLane="best" departSpeed="max" from="463595577" to="46491492#3"/>
    <trip id="veh353" type="veh_passenger" depart="386.33" departLane="best" from="278568481#5" to="278568481#0"/>
    <trip id="veh361" type="veh_passenger" depart="395.08" departLane="best" from="707032745" to="46491492#3"/>
    <trip id="veh364" type="veh_passenger" depart="398.37" departLane="best" from="512635985" to="46491492#3"/>
    <trip id="veh369" type="veh_passenger" depart="403.84" departLane="best" departSpeed="max" from="463595577" to="153393977#3"/>
    <trip id="veh371" type="veh_passenger" depart="406.03" departLane="best" from="419921871" to="-406044541"/>
    <trip id="veh376" type="veh_passenger" depart="411.50" departLane="best" from="153393977#0-AddedOffRampEdge" to="514898512#1"/>
    <trip id="veh377" type="veh_passenger" depart="412.60" departLane="best" from="707032744" to="153393977#3"/>
    <trip id="veh381" type="veh_passenger" depart="416.97" departLane="best" from="322880371" to="536505441"/>
    <trip id="veh383" type="veh_passenger" depart="419.16" departLane="best" from="153393977#1" to="153393977#3"/>
    <trip id="veh389" type="veh_passenger" depart="425.73" departLane="best" departSpeed="max" from="463595577" to="153393977#2"/>
    <trip id="veh391" type="veh_passenger" depart="427.92" departLane="best" departSpeed="max" from="47097747" to="514898510#1"/>
    <trip id="veh392" type="veh_passenger" depart="429.01" departLane="best" departSpeed="max" from="514898523" to="322880364#2"/>
    <trip id="veh395" type="veh_passenger" depart="432.29" departLane="best" from="-278568481#4" to="406044545#0"/>
    <trip id="veh396" type="veh_passenger" depart="433.39" departLane="best" departSpeed="max" from="463595577" to="514898512#1-AddedOnRampEdge"/>
    <trip id="veh399" type="veh_passenger" depart="436.67" departLane="best" departSpeed="max" from="47097747" to="322880371"/>
    <trip id="veh403" type="veh_passenger" depart="441.05" departLane="best" from="46491492#1" to="514898512#1"/>
    <trip id="veh405" type="veh_passenger" depart="443.24" departLane="best" departSpeed="max" from="47097747" to="514898510#1"/>
    <trip id="veh409" type="veh_passenger" depart="447.62" departLane="best" departSpeed="max" from="47097747" to="322882118"/>
    <trip id="veh411" type="veh_passenger" depart="449.81" departLane="best" departSpeed="max" from="514898523" to="373345192#1"/>
    <trip id="veh418" type="veh_passenger" depart="457.47" departLane="best" departSpeed="max" from="514898523" to="46491492#3"/>
    <trip id="veh421" type="veh_passenger" depart="460.75" departLane="best" departSpeed="max" from="153393977#0" to="153393977#3"/>
    <trip id="veh423" type="veh_passenger" depart="462.94" departLane="best" from="522870947" to="46491492#3-AddedOnRampEdge"/>
    <trip id="veh426" type="veh_passenger" depart="466.22" departLane="best" from="463595577-AddedOffRampEdge" to="322882116"/>
    <trip id="veh427" type="veh_passenger" depart="467.32" departLane="best" departSpeed="max" from="153393977#0" to="514898512#1"/>
    <trip id="veh428" type="veh_passenger" depart="468.41" departLane="best" departSpeed="max" from="153393977#0" to="322880364#1"/>
    <trip id="veh430" type="veh_passenger" depart="470.60" departLane="best" departSpeed="max" from="463595577" to="463595577"/>
    <trip id="veh434" type="veh_passenger" depart="474.98" departLane="best" departSpeed="max" from="47097747" to="514898510#1"/>
    <trip id="veh439" type="veh_passenger" depart="480.45" departLane="best" departSpeed="max" from="463595577" to="46491492#3"/>
    <trip id="veh441" type="veh_passenger" depart="482.64" departLane="best" from="46491492#1" to="514898512#1"/>
    <trip id="veh450" type="veh_passenger" depart="492.49" departLane="best" departSpeed="max" from="514898523" to="153393977#3"/>
    <trip id="veh455" type="veh_passenger" depart="497.96" departLane="best" from="707032740" to="514898512#1"/>
    <trip id="veh456" type="veh_passenger" depart="499.05" departLane="best" departSpeed="max" from="47097747" to="707032744"/>
    <trip id="veh457" type="veh_passenger" depart="500.15" departLane="best" from="707032740" to="514898512#1"/>
    <trip id="veh460" type="veh_passenger" depart="503.43" departLane="best" from="373345192#2" to="46491492#3"/>
    <trip id="veh480" type="veh_passenger" depart="525.32" departLane="best" from="536505446" to="514898512#1"/>
    <trip id="veh484" type="veh_passenger" depart="529.70" departLane="best" from="-83745276#1" to="-406279095"/>
    <trip id="veh485" type="veh_passenger" depart="530.79" departLane="best" departSpeed="max" from="514898523" to="373345192#2"/>
    <trip id="veh486" type="veh_passenger" depart="531.89" departLane="best" from="46491492#2" to="46491492#3"/>
    <trip id="veh491" type="veh_passenger" depart="537.36" departLane="best" departSpeed="max" from="153393977#0" to="153393977#1"/>
    <trip id="veh500" type="veh_passenger" depart="547.21" departLane="best" from="-524933610" to="-278568487#0"/>
    <trip id="veh517" type="veh_passenger" depart="565.81" departLane="best" departSpeed="max" from="47097747" to="514898512#1"/>
    <trip id="veh518" type="veh_passenger" depart="566.91" departLane="best" from="46491492#1" to="514898510#1"/>
    <trip id="veh520" type="veh_passenger" depart="569.10" departLane="best" from="373345192#2" to="153393977#2"/>
    <trip id="veh523" type="veh_passenger" depart="572.38" departLane="best" from="322882116" to="46491492#3"/>
    <trip id="veh524" type="veh_passenger" depart="573.47" departLane="best" from="322879268" to="-418786073#0"/>
    <trip id="veh528" type="veh_passenger" depart="577.85" departLane="best" departSpeed="max" from="514898523" to="449066484"/>
    <trip id="veh532" type="veh_passenger" depart="582.23" departLane="best" departSpeed="max" from="47097747" to="514898512#1-AddedOnRampEdge"/>
    <trip id="veh533" type="veh_passenger" depart="583.32" departLane="best" departSpeed="max" from="47097747" to="707032740"/>
    <trip id="veh538" type="veh_passenger" depart="588.80" departLane="best" departSpeed="max" from="463595577" to="514898512#1"/>
    <trip id="veh539" type="veh_passenger" depart="589.89" departLane="best" departSpeed="max" from="514898523" to="707032743"/>
    <trip id="veh540" type="veh_passenger" depart="590.99" departLane="best" departSpeed="max" from="514898523" to="46491492#3"/>
    <trip id="veh542" type="veh_passenger" depart="593.17" departLane="best" from="536505440" to="514898512#1"/>
    <trip id="veh553" type="veh_passenger" depart="605.21" departLane="best" from="-406044539#0" to="-278568487#0"/>
    <trip id="veh557" type="veh_passenger" depart="609.59" departLane="best" from="373345192#1" to="153393977#3"/>
    <trip id="veh571" type="veh_passenger" depart="624.91" departLane="best" from="536457457" to="514898512#1-AddedOnRampEdge"/>
    <trip id="veh572" type="veh_passenger" depart="626.01" departLane="best" departSpeed="max" from="463595577" to="463595577"/>
    <trip id="veh576" type="veh_passenger" depart="630.38" departLane="best" departSpeed="max" from="463595577" to="514898512#1"/>
    <trip id="veh577" type="veh_passenger" depart="631.48" departLane="best" from="524933616" to="-406044540"/>
    <trip id="veh578" type="veh_passenger" depart="632.57" departLane="best" departSpeed="max" from="514898523" to="153393977#3"/>
    <trip id="veh582" type="veh_passenger" depart="636.95" departLane="best" departSpeed="max" from="47097747" to="514898512#1"/>
    <trip id="veh583" type="veh_passenger" depart="638.05" departLane="best" departSpeed="max" from="514898523" to="153393977#3"/>
    <trip id="veh587" type="veh_passenger" depart="642.42" departLane="best" from="512635985" to="514898510#1"/>
    <trip id="veh590" type="veh_passenger" depart="645.71" departLane="best" departSpeed="max" from="463595577" to="514898512#1-AddedOnRampEdge"/>
    <trip id="veh593" type="veh_passenger" depart="648.99" departLane="best" from="153393977#3" to="153393977#3"/>
    <trip id="veh597" type="veh_passenger" depart="653.37" departLane="best" departSpeed="max" from="514898523" to="46491492#3"/>
    <trip id="veh600" type="veh_passenger" depart="656.65" departLane="best" from="522870943" to="373345192#2"/>
    <trip id="veh601" type="veh_passenger" depart="657.74" departLane="best" departSpeed="max" from="514898523" to="46491492#3"/>
    <trip id="veh602" type="veh_passenger" depart="658.84" departLane="best" from="178226405" to="406043293#1"/>
    <trip id="veh614" type="veh_passenger" depart="671.97" departLane="best" departSpeed="max" from="47097747" to="46491492#3"/>
    <trip id="veh622" type="veh_passenger" depart="680.73" departLane="best" departSpeed="max" from="514898523" to="46491492#3"/>
    <trip id="veh623" type="veh_passenger" depart="681.82" departLane="best" departSpeed="max" from="514898523" to="514898510#1"/>
    <trip id="veh625" type="veh_passenger" depart="684.01" departLane="best" from="463595577-AddedOffRampEdge" to="322882115"/>
    <trip id="veh631" type="veh_passenger" depart="690.58" departLane="best" departSpeed="max" from="514898523" to="514898523-AddedOffRampEdge"/>
    <trip id="veh634" type="veh_passenger" depart="693.86" departLane="best" departSpeed="max" from="514898523" to="514898510#1-AddedOnRampEdge"/>
    <trip id="veh638" type="veh_passenger" depart="698.24" departLane="best" from="373345192#1" to="153393977#3"/>
    <trip id="veh639" type="veh_passenger" depart="699.33" departLane="best" departSpeed="max" from="47097747" to="373345192#2"/>
    <trip id="veh643" type="veh_passenger" depart="703.71" departLane="best" from="536505445" to="707032745"/>
    <trip id="veh644" type="veh_passenger" depart="704.80" departLane="best" from="373345192#3" to="153393977#3"/>
    <trip id="veh646" type="veh_passenger" depart="706.99" departLane="best" from="707032740" to="514898512#1"/>
    <trip id="veh650" type="veh_passenger" depart="711.37" departLane="best" departSpeed="max" from="514898523" to="153393977#3"/>
    <trip id="veh654" type="veh_passenger" depart="715.75" departLane="best" departSpeed="max" from="153393977#0" to="373345192#2"/>
    <trip id="veh655" type="veh_passenger" depart="716.84" departLane="best" from="278568481#5" to="-278568481#1"/>
    <trip id="veh658" type="veh_passenger" depart="720.13" departLane="best" from="536505441" to="514898512#1"/>
    <trip id="veh669" type="veh_passenger" depart="732.17" departLane="best" from="322880373" to="514898512#1"/>
    <trip id="veh683" type="veh_passenger" depart="747.49" departLane="best" departSpeed="max" from="47097747" to="46491492#3"/>
    <trip id="veh684" type="veh_passenger" depart="748.58" departLane="best" from="514898510#1-AddedOnRampEdge" to="514898510#1"/>
    <trip id="veh685" type="veh_passenger" depart="749.68" departLane="best" from="278568481#0" to="-278568484"/>
    <trip id="veh689" type="veh_passenger" depart="754.05" departLane="best" departSpeed="max" from="463595577" to="514898512#1"/>
    <trip id="veh691" type="veh_passenger" depart="756.24" departLane="best" from="373345192#3" to="153393977#3"/>
    <trip id="veh700" type="veh_passenger" depart="766.09" departLane="best" from="522870936" to="514898510#1"/>
    <trip id="veh701" type="veh_passenger" depart="767.19" departLane="best" from="522870943" to="322880364#2"/>
    <trip id="veh706" type="veh_passenger" depart="772.66" departLane="best" departSpeed="max" from="463595577" to="514898512#1"/>
    <trip id="veh711" type="veh_passenger" depart="778.13" departLane="best" from="278568483" to="-278568484"/>
    <trip id="veh714" type="veh_passenger" depart="781.41" departLane="best" from="707032744" to="536505445"/>
    <trip id="veh726" type="veh_passenger" depart="794.55" departLane="best" from="322880364#3" to="46491492#3"/>
    <trip id="veh730" type="veh_passenger" depart="798.92" departLane="best" departSpeed="max" from="153393977#0" to="153393977#3"/>
    <trip id="veh734" type="veh_passenger" depart="803.30" departLane="best" departSpeed="max" from="514898523" to="373345192#2"/>
    <trip id="veh735" type="veh_passenger" depart="804.40" departLane="best" from="522870943" to="373345192#1"/>
    <trip id="veh740" type="veh_passenger" depart="809.87" departLane="best" departSpeed="max" from="514898523" to="514898510#1"/>
    <trip id="veh741" type="veh_passenger" depart="810.96" departLane="best" from="536505440" to="46491492#3"/>
    <trip id="veh745" type="veh_passenger" depart="815.34" departLane="best" from="-278568481#1" to="419921871"/>
    <trip id="veh753" type="veh_passenger" depart="824.10" departLane="best" from="373345192#2" to="46491492#3-AddedOnRampEdge"/>
    <trip id="veh762" type="veh_passenger" depart="833.95" departLane="best" from="522870943" to="514898512#1"/>
    <trip id="veh763" type="veh_passenger" depart="835.04" departLane="best" from="418786073#1" to="-406279098#0"/>
    <trip id="veh767" type="veh_passenger" depart="839.42" departLane="best" from="46491492#1" to="514898510#1"/>
    <trip id="veh768" type="veh_passenger" depart="840.51" departLane="best" departSpeed="max" from="463595577" to="514898512#1"/>
    <trip id="veh770" type="veh_passenger" depart="842.70" departLane="best" from="46491492#1" to="514898510#1"/>
    <trip id="veh771" type="veh_passenger" depart="843.80" departLane="best" from="322880371" to="46491492#3"/>
    <trip id="veh775" type="veh_passenger" depart="848.17" departLane="best" departSpeed="max" from="47097747" to="153393977#3"/>
    <trip id="veh776" type="veh_passenger" depart="849.27" departLane="best" from="-32637902#1" to="-322879265"/>
    <trip id="veh777" type="veh_passenger" depart="850.36" departLane="best" from="32637902#1" to="406044542"/>
    <trip id="veh779" type="veh_passenger" depart="852.55" departLane="best" departSpeed="max" from="47097747" to="514898512#1"/>
    <trip id="veh783" type="veh_passenger" depart="856.93" departLane="best" from="153393977#0-AddedOffRampEdge" to="153393977#3"/>
    <trip id="veh785" type="veh_passenger" depart="859.12" departLane="best" from="322880364#1" to="46491492#3"/>
    <trip id="veh786" type="veh_passenger" depart="860.21" departLane="best" departSpeed="max" from="153393977#0" to="514898512#1-AddedOnRampEdge"/>
    <trip id="veh793" type="veh_passenger" depart="867.87" departLane="best" from="278568483" to="-278568485#1"/>
    <trip id="veh798" type="veh_passenger" depart="873.35" departLane="best" departSpeed="max" from="47097747" to="514898510#1"/>
    <trip id="veh805" type="veh_passenger" depart="881.01" departLane="best" from="536505442" to="514898510#1"/>
    <trip id="veh807" type="veh_passenger" depart="883.19" departLane="best" from="406044545#0" to="-278568485#0"/>
    <trip id="veh813" type="veh_passenger" depart="889.76" departLane="best" departSpeed="max" from="47097747" to="153393977#3"/>
    <trip id="veh823" type="veh_passenger" depart="900.71" departLane="best" departSpeed="max" from="463595577" to="46491492#3"/>
    <trip id="veh829" type="veh_passenger" depart="907.27" departLane="best" from="322880371" to="514898510#1-AddedOnRampEdge"/>