<?xml version="1.0" encoding="UTF-8"?>

<!-- generated on Mon Feb  3 13:35:12 2020 by Eclipse SUMO netconvert Version 1.4.0
<configuration xmlns:xsi="http://www.w3.org/2001/XMLSchema-instance" xsi:noNamespaceSchemaLocation="http://sumo.dlr.de/xsd/netconvertConfiguration.xsd">

    <input>
        <type-files value="/usr/share/sumo/data/typemap/osmNetconvert.typ.xml"/>
        <osm-files value="osm_bbox.osm.xml"/>
    </input>

    <output>
        <output-file value="osm.net.xml"/>
        <output.street-names value="true"/>
        <output.original-names value="true"/>
    </output>

    <projection>
        <proj.utm value="true"/>
    </projection>

    <processing>
        <geometry.remove value="true"/>
        <roundabouts.guess value="true"/>
        <lefthand value="true"/>
    </processing>

    <tls_building>
        <tls.discard-simple value="true"/>
        <tls.join value="true"/>
        <tls.guess-signals value="true"/>
        <tls.default-type value="actuated"/>
    </tls_building>

    <ramp_guessing>
        <ramps.guess value="true"/>
    </ramp_guessing>

    <junctions>
        <junctions.join value="true"/>
        <junctions.corner-detail value="5"/>
    </junctions>

    <report>
        <verbose value="true"/>
        <aggregate-warnings value="5"/>
    </report>

</configuration>
-->

<net version="1.3" junctionCornerDetail="5" lefthand="true" limitTurnSpeed="5.50" xmlns:xsi="http://www.w3.org/2001/XMLSchema-instance" xsi:noNamespaceSchemaLocation="http://sumo.dlr.de/xsd/net_file.xsd">

    <location netOffset="-506800.72,-5899743.31" convBoundary="0.00,-0.00,8621.66,17004.47" origBoundary="-8.897961,53.246843,-8.768565,53.399664" projParameter="+proj=utm +zone=29 +ellps=WGS84 +datum=WGS84 +units=m +no_defs"/>

    <type id="highway.bridleway" priority="1" numLanes="1" speed="2.78" allow="pedestrian" oneway="1" width="2.00"/>
    <type id="highway.bus_guideway" priority="1" numLanes="1" speed="27.78" allow="bus" oneway="1"/>
    <type id="highway.cycleway" priority="1" numLanes="1" speed="8.33" allow="bicycle" oneway="0" width="1.00"/>
    <type id="highway.footway" priority="1" numLanes="1" speed="2.78" allow="pedestrian" oneway="1" width="2.00"/>
    <type id="highway.ford" priority="1" numLanes="1" speed="2.78" allow="army" oneway="0"/>
    <type id="highway.living_street" priority="2" numLanes="1" speed="2.78" disallow="tram rail_urban rail rail_electric rail_fast ship" oneway="0"/>
    <type id="highway.motorway" priority="14" numLanes="2" speed="39.44" allow="private emergency authority army vip passenger hov taxi bus coach delivery truck trailer motorcycle evehicle custom1 custom2" oneway="1"/>
    <type id="highway.motorway_link" priority="9" numLanes="1" speed="22.22" allow="private emergency authority army vip passenger hov taxi bus coach delivery truck trailer motorcycle evehicle custom1 custom2" oneway="1"/>
    <type id="highway.path" priority="1" numLanes="1" speed="2.78" allow="pedestrian bicycle" oneway="1" width="2.00"/>
    <type id="highway.pedestrian" priority="1" numLanes="1" speed="2.78" allow="pedestrian" oneway="1" width="2.00"/>
    <type id="highway.primary" priority="12" numLanes="2" speed="27.78" disallow="tram rail_urban rail rail_electric rail_fast ship" oneway="0"/>
    <type id="highway.primary_link" priority="7" numLanes="1" speed="22.22" disallow="tram rail_urban rail rail_electric rail_fast ship" oneway="0"/>
    <type id="highway.raceway" priority="15" numLanes="2" speed="83.33" allow="vip" oneway="0"/>
    <type id="highway.residential" priority="3" numLanes="1" speed="13.89" disallow="tram rail_urban rail rail_electric rail_fast ship" oneway="0"/>
    <type id="highway.secondary" priority="11" numLanes="1" speed="27.78" disallow="tram rail_urban rail rail_electric rail_fast ship" oneway="0"/>
    <type id="highway.secondary_link" priority="6" numLanes="1" speed="22.22" disallow="tram rail_urban rail rail_electric rail_fast ship" oneway="0"/>
    <type id="highway.service" priority="1" numLanes="1" speed="5.56" allow="pedestrian delivery bicycle" oneway="0"/>
    <type id="highway.stairs" priority="1" numLanes="1" speed="1.39" allow="pedestrian" oneway="1" width="2.00"/>
    <type id="highway.step" priority="1" numLanes="1" speed="1.39" allow="pedestrian" oneway="1" width="2.00"/>
    <type id="highway.steps" priority="1" numLanes="1" speed="1.39" allow="pedestrian" oneway="1" width="2.00"/>
    <type id="highway.tertiary" priority="10" numLanes="1" speed="22.22" disallow="tram rail_urban rail rail_electric rail_fast ship" oneway="0"/>
    <type id="highway.tertiary_link" priority="5" numLanes="1" speed="22.22" disallow="tram rail_urban rail rail_electric rail_fast ship" oneway="0"/>
    <type id="highway.track" priority="1" numLanes="1" speed="5.56" disallow="tram rail_urban rail rail_electric rail_fast ship" oneway="0"/>
    <type id="highway.trunk" priority="13" numLanes="2" speed="27.78" disallow="pedestrian bicycle tram rail_urban rail rail_electric rail_fast ship" oneway="0"/>
    <type id="highway.trunk_link" priority="8" numLanes="1" speed="22.22" disallow="pedestrian bicycle tram rail_urban rail rail_electric rail_fast ship" oneway="0"/>
    <type id="highway.unclassified" priority="4" numLanes="1" speed="13.89" disallow="tram rail_urban rail rail_electric rail_fast ship" oneway="0"/>
    <type id="highway.unsurfaced" priority="1" numLanes="1" speed="8.33" disallow="tram rail_urban rail rail_electric rail_fast ship" oneway="0"/>
    <type id="railway.highspeed" priority="21" numLanes="1" speed="69.44" allow="rail_fast" oneway="1"/>
    <type id="railway.light_rail" priority="19" numLanes="1" speed="27.78" allow="rail_urban" oneway="1"/>
    <type id="railway.preserved" priority="16" numLanes="1" speed="27.78" allow="rail" oneway="1"/>
    <type id="railway.rail" priority="20" numLanes="1" speed="44.44" allow="rail" oneway="1"/>
    <type id="railway.subway" priority="18" numLanes="1" speed="27.78" allow="rail_urban" oneway="1"/>
    <type id="railway.tram" priority="17" numLanes="1" speed="13.89" allow="tram" oneway="1"/>

    <edge id=":1010753887_0" function="internal">
        <lane id=":1010753887_0_0" index="0" allow="private emergency authority army vip passenger hov taxi bus coach delivery truck trailer motorcycle evehicle custom1 custom2" speed="6.82" length="9.02" shape="4879.77,5718.67 4880.19,5716.27 4881.26,5714.49 4882.97,5713.31 4885.34,5712.75"/>
    </edge>
    <edge id=":1010753887_1" function="internal">
        <lane id=":1010753887_1_0" index="0" allow="pedestrian delivery bicycle" speed="3.65" length="4.67" shape="4879.77,5718.67 4879.01,5717.44 4878.23,5717.01 4877.42,5717.38 4876.57,5718.55"/>
    </edge>
    <edge id=":1010753887_2" function="internal">
        <lane id=":1010753887_2_0" index="0" allow="pedestrian delivery bicycle" speed="6.78" length="10.95" shape="4871.05,5710.97 4873.58,5711.22 4875.34,5712.56 4876.34,5715.01 4876.57,5718.55"/>
    </edge>
    <edge id=":1010753887_3" function="internal">
        <lane id=":1010753887_3_0" index="0" allow="private emergency authority army vip passenger hov taxi bus coach delivery truck trailer motorcycle evehicle custom1 custom2" speed="33.33" length="14.06" shape="4871.05,5710.97 4885.03,5709.56"/>
        <lane id=":1010753887_3_1" index="1" allow="private emergency authority army vip passenger hov taxi bus coach delivery truck trailer motorcycle evehicle custom1 custom2" speed="33.33" length="14.06" shape="4870.72,5707.79 4884.72,5706.38"/>
    </edge>
    <edge id=":1193262874_0" function="internal">
        <lane id=":1193262874_0_0" index="0" disallow="tram rail_urban rail rail_electric rail_fast ship" speed="13.05" length="10.76" shape="8039.74,4520.93 8036.65,4521.72 8034.41,4522.93 8032.30,4523.57 8029.61,4522.71"/>
    </edge>
    <edge id=":1193262874_1" function="internal">
        <lane id=":1193262874_1_0" index="0" disallow="tram rail_urban rail rail_electric rail_fast ship" speed="6.65" length="16.37" shape="8039.74,4520.93 8036.21,4522.54 8035.46,4525.88 8037.06,4529.79 8040.59,4533.10"/>
    </edge>
    <edge id=":1193262874_2" function="internal">
        <lane id=":1193262874_2_0" index="0" disallow="tram rail_urban rail rail_electric rail_fast ship" speed="3.88" length="5.56" shape="8039.74,4520.93 8039.17,4522.55 8039.37,4523.59 8040.32,4524.07 8042.03,4523.97"/>
    </edge>
    <edge id=":1193262874_3" function="internal">
        <lane id=":1193262874_3_0" index="0" disallow="tram rail_urban rail rail_electric rail_fast ship" speed="5.76" length="11.86" shape="8042.25,4530.36 8038.69,4527.81 8037.47,4525.90 8038.58,4524.62 8042.03,4523.97"/>
    </edge>
    <edge id=":1193262874_4" function="internal">
        <lane id=":1193262874_4_0" index="0" disallow="tram rail_urban rail rail_electric rail_fast ship" speed="22.22" length="14.77" shape="8042.25,4530.36 8029.61,4522.71"/>
    </edge>
    <edge id=":1193262874_5" function="internal">
        <lane id=":1193262874_5_0" index="0" disallow="tram rail_urban rail rail_electric rail_fast ship" speed="3.65" length="2.34" shape="8042.25,4530.36 8040.81,4530.42 8040.05,4530.90"/>
    </edge>
    <edge id=":1193262874_9" function="internal">
        <lane id=":1193262874_9_0" index="0" disallow="tram rail_urban rail rail_electric rail_fast ship" speed="3.65" length="2.34" shape="8040.05,4530.90 8039.98,4531.79 8040.59,4533.10"/>
    </edge>
    <edge id=":1193262874_6" function="internal">
        <lane id=":1193262874_6_0" index="0" disallow="tram rail_urban rail rail_electric rail_fast ship" speed="22.22" length="14.78" shape="8027.95,4525.44 8040.59,4533.10"/>
    </edge>
    <edge id=":1193262874_7" function="internal">
        <lane id=":1193262874_7_0" index="0" disallow="tram rail_urban rail rail_electric rail_fast ship" speed="15.09" length="4.47" shape="8027.95,4525.44 8031.25,4526.36 8032.29,4526.20"/>
    </edge>
    <edge id=":1193262874_8" function="internal">
        <lane id=":1193262874_8_0" index="0" disallow="tram rail_urban rail rail_electric rail_fast ship" speed="3.65" length="2.34" shape="8027.95,4525.44 8029.39,4525.38 8030.15,4524.91"/>
    </edge>
    <edge id=":1193262874_10" function="internal">
        <lane id=":1193262874_10_0" index="0" disallow="tram rail_urban rail rail_electric rail_fast ship" speed="15.09" length="10.02" shape="8032.29,4526.20 8034.73,4525.81 8038.33,4524.72 8042.03,4523.97"/>
    </edge>
    <edge id=":1193262874_11" function="internal">
        <lane id=":1193262874_11_0" index="0" disallow="tram rail_urban rail rail_electric rail_fast ship" speed="3.65" length="2.34" shape="8030.15,4524.91 8030.22,4524.01 8029.61,4522.71"/>
    </edge>
    <edge id=":1518899273_0" function="internal">
        <lane id=":1518899273_0_0" index="0" disallow="tram rail_urban rail rail_electric rail_fast ship" speed="5.56" length="0.31" shape="8060.56,5154.46 8060.34,5154.24"/>
    </edge>
    <edge id=":1518899273_1" function="internal">
        <lane id=":1518899273_1_0" index="0" allow="pedestrian delivery bicycle" speed="5.56" length="0.22" shape="8058.10,5156.53 8058.26,5156.69"/>
    </edge>
    <edge id=":1518899273_2" function="internal">
        <lane id=":1518899273_2_0" index="0" disallow="tram rail_urban rail rail_electric rail_fast ship" speed="3.65" length="2.34" shape="8058.10,5156.53 8059.52,5156.80 8060.37,5156.50"/>
    </edge>
    <edge id=":1518899273_3" function="internal">
        <lane id=":1518899273_3_0" index="0" disallow="tram rail_urban rail rail_electric rail_fast ship" speed="3.65" length="2.34" shape="8060.37,5156.50 8060.64,5155.65 8060.34,5154.24"/>
    </edge>
    <edge id=":1518899274_0" function="internal">
        <lane id=":1518899274_0_0" index="0" allow="pedestrian delivery bicycle" speed="3.65" length="4.67" shape="8105.87,5205.64 8107.28,5205.94 8108.14,5205.67 8108.43,5204.82 8108.17,5203.40"/>
    </edge>
    <edge id=":153393977#0-AddedOffRampNode_0" function="internal">
        <lane id=":153393977#0-AddedOffRampNode_0_0" index="0" allow="private emergency authority army vip passenger hov taxi bus coach delivery truck trailer motorcycle evehicle custom1 custom2" speed="33.33" length="8.27" shape="6962.74,5533.86 6960.23,5533.74 6958.54,5532.88 6956.86,5532.03 6954.35,5531.91"/>
        <lane id=":153393977#0-AddedOffRampNode_0_1" index="1" allow="private emergency authority army vip passenger hov taxi bus coach delivery truck trailer motorcycle evehicle custom1 custom2" speed="33.33" length="8.27" shape="6962.74,5533.86 6954.83,5535.07"/>
        <lane id=":153393977#0-AddedOffRampNode_0_2" index="2" allow="private emergency authority army vip passenger hov taxi bus coach delivery truck trailer motorcycle evehicle custom1 custom2" speed="33.33" length="8.27" shape="6963.23,5537.02 6955.32,5538.23"/>
    </edge>
    <edge id=":1707641399_0" function="internal">
        <lane id=":1707641399_0_0" index="0" disallow="tram rail_urban rail rail_electric rail_fast ship" speed="13.89" length="14.41" shape="5960.98,6928.84 5954.79,6915.83"/>
    </edge>
    <edge id=":1707641399_1" function="internal">
        <lane id=":1707641399_1_0" index="0" disallow="tram rail_urban rail rail_electric rail_fast ship" speed="8.02" length="5.92" shape="5960.98,6928.84 5958.83,6925.61 5957.13,6924.48"/>
    </edge>
    <edge id=":1707641399_2" function="internal">
        <lane id=":1707641399_2_0" index="0" disallow="tram rail_urban rail rail_electric rail_fast ship" speed="3.65" length="2.34" shape="5960.98,6928.84 5959.74,6928.10 5958.85,6928.08"/>
    </edge>
    <edge id=":1707641399_9" function="internal">
        <lane id=":1707641399_9_0" index="0" disallow="tram rail_urban rail rail_electric rail_fast ship" speed="8.02" length="8.28" shape="5957.13,6924.48 5956.16,6923.83 5952.96,6923.51 5949.23,6924.65"/>
    </edge>
    <edge id=":1707641399_10" function="internal">
        <lane id=":1707641399_10_0" index="0" disallow="tram rail_urban rail rail_electric rail_fast ship" speed="3.65" length="2.34" shape="5958.85,6928.08 5958.29,6928.79 5958.09,6930.22"/>
    </edge>
    <edge id=":1707641399_3" function="internal">
        <lane id=":1707641399_3_0" index="0" disallow="tram rail_urban rail rail_electric rail_fast ship" speed="6.53" length="9.07" shape="5950.58,6927.55 5952.97,6926.82 5955.01,6927.02 5956.72,6928.16 5958.09,6930.22"/>
    </edge>
    <edge id=":1707641399_4" function="internal">
        <lane id=":1707641399_4_0" index="0" disallow="tram rail_urban rail rail_electric rail_fast ship" speed="7.99" length="14.22" shape="5950.58,6927.55 5953.85,6925.41 5955.64,6922.75 5955.96,6919.56 5954.79,6915.83"/>
    </edge>
    <edge id=":1707641399_5" function="internal">
        <lane id=":1707641399_5_0" index="0" disallow="tram rail_urban rail rail_electric rail_fast ship" speed="3.65" length="4.67" shape="5950.58,6927.55 5951.33,6926.32 5951.36,6925.42 5950.66,6924.87 5949.23,6924.65"/>
    </edge>
    <edge id=":1707641399_6" function="internal">
        <lane id=":1707641399_6_0" index="0" disallow="tram rail_urban rail rail_electric rail_fast ship" speed="6.49" length="9.03" shape="5951.91,6917.21 5952.64,6919.57 5952.44,6921.60 5951.31,6923.29 5949.23,6924.65"/>
    </edge>
    <edge id=":1707641399_7" function="internal">
        <lane id=":1707641399_7_0" index="0" disallow="tram rail_urban rail rail_electric rail_fast ship" speed="13.89" length="14.40" shape="5951.91,6917.21 5958.09,6930.22"/>
    </edge>
    <edge id=":1707641399_8" function="internal">
        <lane id=":1707641399_8_0" index="0" disallow="tram rail_urban rail rail_electric rail_fast ship" speed="3.65" length="2.34" shape="5951.91,6917.21 5953.14,6917.95 5954.04,6917.96"/>
    </edge>
    <edge id=":1707641399_11" function="internal">
        <lane id=":1707641399_11_0" index="0" disallow="tram rail_urban rail rail_electric rail_fast ship" speed="3.65" length="2.34" shape="5954.04,6917.96 5954.59,6917.26 5954.79,6915.83"/>
    </edge>
    <edge id=":1885912507_0" function="internal">
        <lane id=":1885912507_0_0" index="0" allow="pedestrian delivery bicycle" speed="3.65" length="4.67" shape="7760.84,4372.37 7760.77,4370.93 7760.29,4370.17 7759.40,4370.10 7758.10,4370.72"/>
    </edge>
    <edge id=":1885912551_0" function="internal">
        <lane id=":1885912551_0_0" index="0" disallow="tram rail_urban rail rail_electric rail_fast ship" speed="22.22" length="9.50" shape="7985.67,4490.00 7978.44,4483.84"/>
    </edge>
    <edge id=":1885912551_1" function="internal">
        <lane id=":1885912551_1_0" index="0" allow="pedestrian delivery bicycle" speed="6.74" length="5.21" shape="7985.67,4490.00 7983.04,4488.34 7980.96,4488.08"/>
    </edge>
    <edge id=":1885912551_2" function="internal">
        <lane id=":1885912551_2_0" index="0" disallow="tram rail_urban rail rail_electric rail_fast ship" speed="3.65" length="2.34" shape="7985.67,4490.00 7984.24,4489.83 7983.42,4490.18"/>
    </edge>
    <edge id=":1885912551_9" function="internal">
        <lane id=":1885912551_9_0" index="0" allow="pedestrian delivery bicycle" speed="6.74" length="5.86" shape="7980.96,4488.08 7980.63,4488.04 7978.46,4489.11 7976.52,4491.54"/>
    </edge>
    <edge id=":1885912551_10" function="internal">
        <lane id=":1885912551_10_0" index="0" disallow="tram rail_urban rail rail_electric rail_fast ship" speed="3.65" length="2.34" shape="7983.42,4490.18 7983.20,4491.04 7983.60,4492.43"/>
    </edge>
    <edge id=":1885912551_3" function="internal">
        <lane id=":1885912551_3_0" index="0" disallow="tram rail_urban rail rail_electric rail_fast ship" speed="4.87" length="5.22" shape="7979.28,4493.16 7980.20,4492.01 7981.22,4491.51 7982.35,4491.65 7983.60,4492.43"/>
    </edge>
    <edge id=":1885912551_4" function="internal">
        <lane id=":1885912551_4_0" index="0" disallow="tram rail_urban rail rail_electric rail_fast ship" speed="7.37" length="10.30" shape="7979.28,4493.16 7980.49,4490.43 7980.75,4487.96 7980.07,4485.76 7978.44,4483.84"/>
    </edge>
    <edge id=":1885912551_5" function="internal">
        <lane id=":1885912551_5_0" index="0" allow="pedestrian delivery bicycle" speed="3.65" length="4.67" shape="7979.28,4493.16 7979.20,4491.72 7978.71,4490.97 7977.82,4490.91 7976.52,4491.54"/>
    </edge>
    <edge id=":1885912551_6" function="internal">
        <lane id=":1885912551_6_0" index="0" allow="pedestrian delivery bicycle" speed="5.69" length="5.78" shape="7976.37,4486.27 7977.19,4487.29 7977.49,4488.51 7977.26,4489.93 7976.52,4491.54"/>
    </edge>
    <edge id=":1885912551_7" function="internal">
        <lane id=":1885912551_7_0" index="0" disallow="tram rail_urban rail rail_electric rail_fast ship" speed="22.22" length="9.50" shape="7976.37,4486.27 7983.60,4492.43"/>
    </edge>
    <edge id=":1885912551_8" function="internal">
        <lane id=":1885912551_8_0" index="0" disallow="tram rail_urban rail rail_electric rail_fast ship" speed="3.65" length="2.34" shape="7976.37,4486.27 7977.80,4486.44 7978.62,4486.09"/>
    </edge>
    <edge id=":1885912551_11" function="internal">
        <lane id=":1885912551_11_0" index="0" disallow="tram rail_urban rail rail_electric rail_fast ship" speed="3.65" length="2.34" shape="7978.62,4486.09 7978.84,4485.22 7978.44,4483.84"/>
    </edge>
    <edge id=":1885912553_0" function="internal">
        <lane id=":1885912553_0_0" index="0" allow="pedestrian delivery bicycle" speed="5.56" length="9.48" shape="7921.67,4494.10 7913.68,4489.00"/>
    </edge>
    <edge id=":1885912553_1" function="internal">
        <lane id=":1885912553_1_0" index="0" allow="pedestrian delivery bicycle" speed="5.56" length="10.96" shape="7921.67,4494.10 7918.88,4492.81 7916.48,4492.81 7914.45,4494.11 7912.80,4496.71"/>
    </edge>
    <edge id=":1885912553_2" function="internal">
        <lane id=":1885912553_2_0" index="0" allow="pedestrian delivery bicycle" speed="3.65" length="4.67" shape="7921.67,4494.10 7920.23,4494.12 7919.46,4494.57 7919.36,4495.46 7919.92,4496.78"/>
    </edge>
    <edge id=":1885912553_3" function="internal">
        <lane id=":1885912553_3_0" index="0" allow="pedestrian delivery bicycle" speed="4.89" length="5.19" shape="7915.72,4498.02 7916.50,4496.79 7917.46,4496.17 7918.60,4496.17 7919.92,4496.78"/>
    </edge>
    <edge id=":1885912553_4" function="internal">
        <lane id=":1885912553_4_0" index="0" allow="pedestrian delivery bicycle" speed="5.56" length="10.36" shape="7915.72,4498.02 7916.67,4495.06 7916.65,4492.57 7915.65,4490.55 7913.68,4489.00"/>
    </edge>
    <edge id=":1885912553_5" function="internal">
        <lane id=":1885912553_5_0" index="0" allow="pedestrian delivery bicycle" speed="3.65" length="4.67" shape="7915.72,4498.02 7915.48,4496.60 7914.92,4495.90 7914.02,4495.94 7912.80,4496.71"/>
    </edge>
    <edge id=":1885912553_6" function="internal">
        <lane id=":1885912553_6_0" index="0" allow="pedestrian delivery bicycle" speed="5.44" length="5.68" shape="7911.93,4491.69 7912.93,4492.51 7913.41,4493.62 7913.37,4495.02 7912.80,4496.71"/>
    </edge>
    <edge id=":1885912553_7" function="internal">
        <lane id=":1885912553_7_0" index="0" allow="pedestrian delivery bicycle" speed="5.56" length="9.48" shape="7911.93,4491.69 7919.92,4496.78"/>
    </edge>
    <edge id=":1885912553_8" function="internal">
        <lane id=":1885912553_8_0" index="0" allow="pedestrian delivery bicycle" speed="3.65" length="4.69" shape="7911.93,4491.69 7913.38,4491.67 7914.15,4491.22 7914.25,4490.33 7913.68,4489.00"/>
    </edge>
    <edge id=":1885912555_0" function="internal">
        <lane id=":1885912555_0_0" index="0" allow="pedestrian delivery bicycle" speed="3.65" length="4.67" shape="7874.57,4512.19 7873.14,4512.39 7872.44,4512.94 7872.45,4513.84 7873.18,4515.08"/>
    </edge>
    <edge id=":1885912557_0" function="internal">
        <lane id=":1885912557_0_0" index="0" allow="pedestrian delivery bicycle" speed="4.99" length="5.06" shape="7961.99,4516.54 7961.12,4517.64 7960.12,4518.17 7958.99,4518.15 7957.72,4517.56"/>
    </edge>
    <edge id=":1885912557_1" function="internal">
        <lane id=":1885912557_1_0" index="0" allow="pedestrian delivery bicycle" speed="5.56" length="10.18" shape="7961.99,4516.54 7960.90,4519.17 7960.85,4521.51 7961.84,4523.58 7963.86,4525.37"/>
    </edge>
    <edge id=":1885912557_2" function="internal">
        <lane id=":1885912557_2_0" index="0" allow="pedestrian delivery bicycle" speed="3.65" length="4.67" shape="7961.99,4516.54 7962.08,4517.98 7962.57,4518.73 7963.46,4518.78 7964.76,4518.14"/>
    </edge>
    <edge id=":1885912557_3" function="internal">
        <lane id=":1885912557_3_0" index="0" allow="pedestrian delivery bicycle" speed="5.22" length="5.22" shape="7965.60,4522.69 7964.60,4521.79 7964.13,4520.73 7964.18,4519.52 7964.76,4518.14"/>
    </edge>
    <edge id=":1885912557_4" function="internal">
        <lane id=":1885912557_4_0" index="0" allow="pedestrian delivery bicycle" speed="5.56" length="9.41" shape="7965.60,4522.69 7957.72,4517.56"/>
    </edge>
    <edge id=":1885912557_5" function="internal">
        <lane id=":1885912557_5_0" index="0" allow="pedestrian delivery bicycle" speed="3.65" length="4.67" shape="7965.60,4522.69 7964.16,4522.71 7963.39,4523.16 7963.29,4524.05 7963.86,4525.37"/>
    </edge>
    <edge id=":1885912557_6" function="internal">
        <lane id=":1885912557_6_0" index="0" allow="pedestrian delivery bicycle" speed="5.56" length="9.41" shape="7955.97,4520.24 7963.86,4525.37"/>
    </edge>
    <edge id=":1885912557_7" function="internal">
        <lane id=":1885912557_7_0" index="0" allow="pedestrian delivery bicycle" speed="5.56" length="10.42" shape="7955.97,4520.24 7958.58,4521.45 7960.92,4521.51 7962.97,4520.40 7964.76,4518.14"/>
    </edge>
    <edge id=":1885912557_8" function="internal">
        <lane id=":1885912557_8_0" index="0" allow="pedestrian delivery bicycle" speed="3.65" length="4.67" shape="7955.97,4520.24 7957.42,4520.23 7958.19,4519.77 7958.29,4518.89 7957.72,4517.56"/>
    </edge>
    <edge id=":1885912560_0" function="internal">
        <lane id=":1885912560_0_0" index="0" allow="pedestrian delivery bicycle" speed="5.56" length="8.65" shape="7833.78,4521.02 7831.25,4521.50 7829.50,4521.82 7827.75,4521.88 7825.23,4521.55"/>
    </edge>
    <edge id=":1885912560_1" function="internal">
        <lane id=":1885912560_1_0" index="0" allow="pedestrian delivery bicycle" speed="5.56" length="15.94" shape="7833.78,4521.02 7828.27,4522.44 7825.77,4524.37 7826.29,4526.81 7829.82,4529.76"/>
    </edge>
    <edge id=":1885912560_2" function="internal">
        <lane id=":1885912560_2_0" index="0" allow="pedestrian delivery bicycle" speed="3.65" length="4.67" shape="7833.78,4521.02 7832.73,4522.01 7832.46,4522.86 7832.99,4523.59 7834.30,4524.18"/>
    </edge>
    <edge id=":1885912560_3" function="internal">
        <lane id=":1885912560_3_0" index="0" allow="pedestrian delivery bicycle" speed="4.62" length="6.64" shape="7832.78,4527.85 7831.28,4526.60 7831.03,4525.58 7832.04,4524.77 7834.30,4524.18"/>
    </edge>
    <edge id=":1885912560_4" function="internal">
        <lane id=":1885912560_4_0" index="0" allow="pedestrian delivery bicycle" speed="5.56" length="10.10" shape="7832.78,4527.85 7830.53,4525.87 7829.26,4524.03 7827.87,4522.52 7825.23,4521.55"/>
    </edge>
    <edge id=":1885912560_5" function="internal">
        <lane id=":1885912560_5_0" index="0" allow="pedestrian delivery bicycle" speed="3.77" length="5.15" shape="7832.78,4527.85 7831.33,4527.21 7830.35,4527.32 7829.84,4528.17 7829.82,4529.76"/>
    </edge>
    <edge id=":1885912560_6" function="internal">
        <lane id=":1885912560_6_0" index="0" allow="pedestrian delivery bicycle" speed="5.56" length="7.46" shape="7824.68,4524.71 7826.55,4525.48 7827.44,4526.74 7828.23,4528.24 7829.82,4529.76"/>
    </edge>
    <edge id=":1885912560_7" function="internal">
        <lane id=":1885912560_7_0" index="0" allow="pedestrian delivery bicycle" speed="5.56" length="9.72" shape="7824.68,4524.71 7827.52,4525.08 7829.49,4525.05 7831.46,4524.71 7834.30,4524.18"/>
    </edge>
    <edge id=":1885912560_8" function="internal">
        <lane id=":1885912560_8_0" index="0" allow="pedestrian delivery bicycle" speed="3.65" length="4.67" shape="7824.68,4524.71 7826.00,4524.12 7826.53,4523.40 7826.27,4522.54 7825.23,4521.55"/>
    </edge>
    <edge id=":1885912562_0" function="internal">
        <lane id=":1885912562_0_0" index="0" allow="pedestrian delivery bicycle" speed="5.08" length="5.20" shape="7901.65,4521.51 7900.88,4522.76 7899.92,4523.46 7898.78,4523.60 7897.45,4523.20"/>
    </edge>
    <edge id=":1885912562_1" function="internal">
        <lane id=":1885912562_1_0" index="0" allow="pedestrian delivery bicycle" speed="5.56" length="9.36" shape="7901.65,4521.51 7900.19,4524.93 7899.25,4527.54 7898.82,4529.35 7898.90,4530.35"/>
    </edge>
    <edge id=":1885912562_2" function="internal">
        <lane id=":1885912562_2_0" index="0" allow="pedestrian delivery bicycle" speed="3.66" length="4.71" shape="7901.65,4521.51 7902.07,4522.90 7902.73,4523.52 7903.62,4523.37 7904.74,4522.44"/>
    </edge>
    <edge id=":1885912562_3" function="internal">
        <lane id=":1885912562_3_0" index="0" allow="pedestrian delivery bicycle" speed="5.56" length="9.13" shape="7903.07,4531.19 7902.70,4529.81 7902.86,4527.90 7903.54,4525.44 7904.74,4522.44"/>
    </edge>
    <edge id=":1885912562_4" function="internal">
        <lane id=":1885912562_4_0" index="0" allow="pedestrian delivery bicycle" speed="5.56" length="10.09" shape="7903.07,4531.19 7901.79,4528.45 7901.00,4526.40 7899.85,4524.74 7897.45,4523.20"/>
    </edge>
    <edge id=":1885912562_5" function="internal">
        <lane id=":1885912562_5_0" index="0" allow="pedestrian delivery bicycle" speed="4.03" length="6.21" shape="7903.07,4531.19 7902.34,4529.42 7901.41,4528.69 7900.26,4529.00 7898.90,4530.35"/>
    </edge>
    <edge id=":1885912562_6" function="internal">
        <lane id=":1885912562_6_0" index="0" allow="pedestrian delivery bicycle" speed="5.56" length="5.30" shape="7896.06,4526.08 7897.30,4526.90 7897.87,4527.80 7898.25,4528.90 7898.90,4530.35"/>
    </edge>
    <edge id=":1885912562_7" function="internal">
        <lane id=":1885912562_7_0" index="0" allow="pedestrian delivery bicycle" speed="5.56" length="10.79" shape="7896.06,4526.08 7898.78,4526.90 7901.13,4526.56 7903.12,4525.08 7904.74,4522.44"/>
    </edge>
    <edge id=":1885912562_8" function="internal">
        <lane id=":1885912562_8_0" index="0" allow="pedestrian delivery bicycle" speed="3.65" length="4.67" shape="7896.06,4526.08 7897.49,4525.88 7898.20,4525.33 7898.19,4524.44 7897.45,4523.20"/>
    </edge>
    <edge id=":1885912563_0" function="internal">
        <lane id=":1885912563_0_0" index="0" allow="pedestrian delivery bicycle" speed="5.56" length="9.86" shape="7978.07,4530.80 7969.80,4525.42"/>
    </edge>
    <edge id=":1885912563_1" function="internal">
        <lane id=":1885912563_1_0" index="0" allow="pedestrian delivery bicycle" speed="5.56" length="12.24" shape="7978.07,4530.80 7974.84,4529.29 7972.28,4529.41 7970.40,4531.14 7969.18,4534.49"/>
    </edge>
    <edge id=":1885912563_2" function="internal">
        <lane id=":1885912563_2_0" index="0" allow="pedestrian delivery bicycle" speed="3.65" length="4.67" shape="7978.07,4530.80 7976.62,4530.82 7975.85,4531.27 7975.75,4532.16 7976.32,4533.48"/>
    </edge>
    <edge id=":1885912563_3" function="internal">
        <lane id=":1885912563_3_0" index="0" allow="pedestrian delivery bicycle" speed="4.74" length="5.52" shape="7972.32,4535.15 7972.86,4533.64 7973.71,4532.85 7974.86,4532.80 7976.32,4533.48"/>
    </edge>
    <edge id=":1885912563_4" function="internal">