<?xml version="1.0" encoding="UTF-8"?>

<!-- generated on Mon Feb  3 13:35:12 2020 by Eclipse SUMO polyconvert Version 1.4.0
<configuration xmlns:xsi="http://www.w3.org/2001/XMLSchema-instance" xsi:noNamespaceSchemaLocation="http://sumo.dlr.de/xsd/polyconvertConfiguration.xsd">

    <input>
        <net-file value="osm.net.xml"/>
        <osm-files value="osm_bbox.osm.xml"/>
        <osm.keep-full-type value="true"/>
        <type-file value="/usr/share/sumo/data/typemap/osmPolyconvert.typ.xml"/>
    </input>

    <output>
        <output-file value="osm.poly.xml"/>
    </output>

    <processing>
        <poi-layer-offset value="5"/>
    </processing>

    <report>
        <verbose value="true"/>
    </report>

</configuration>
-->

<additional xmlns:xsi="http://www.w3.org/2001/XMLSchema-instance" xsi:noNamespaceSchemaLocation="http://sumo.dlr.de/xsd/additional_file.xsd">
    <location netOffset="-506800.72,-5899743.31" convBoundary="-23941.80,-67594.37,35088.23,63851.65" origBoundary="-9.253311,52.639050,-8.373259,53.820766" projParameter="+proj=utm +zone=29 +ellps=WGS84 +datum=WGS84 +units=m +no_defs"/>

    <poly id="178221958" type="building.yes" color="255,230,230" fill="1" layer="-1.00" shape="7867.447366,4542.067240 7871.734944,4533.058231 7894.787123,4543.964828 7896.115637,4541.187726 7937.067472,4560.560124 7934.289519,4566.403177 7940.839635,4569.505008 7936.605633,4578.402874 7926.287868,4573.520559 7926.683759,4572.687422 7910.315089,4564.938493 7907.610982,4570.626042 7897.253241,4565.721417 7899.957339,4560.033862 7887.369572,4554.076647 7888.369371,4551.966018 7867.447366,4542.067240"/>
    <poly id="178221960" type="building.yes" color="255,230,230" fill="1" layer="-1.00" shape="7672.897061,4433.828758 7698.828227,4447.546596 7704.225661,4437.406086 7699.247115,4434.765482 7701.499958,4430.533791 7704.448510,4432.089113 7703.737764,4433.433049 7708.722975,4436.073679 7718.361394,4419.037604 7711.599461,4415.323573 7714.755796,4409.948787 7715.986935,4410.664524 7721.542342,4401.214253 7699.574950,4388.376088 7693.094750,4399.414417 7695.483809,4400.812284 7691.389303,4407.786199 7689.000246,4406.388334 7682.138074,4418.093004 7684.527127,4419.490866 7681.189924,4425.165491 7678.441490,4423.566293 7672.897061,4433.828758"/>
    <poly id="178221963" type="building.yes" color="255,230,230" fill="1" layer="-1.00" shape="7917.602775,4670.246107 7981.727672,4705.988377 8005.429072,4668.515768 7989.823947,4659.756578 7990.655112,4658.290685 7991.932809,4659.006639 7999.004646,4646.468700 8011.382300,4653.415667 8010.691912,4654.626124 8025.711397,4663.060940 8030.323249,4654.876315 7952.210529,4611.035707 7943.181449,4627.049719 7949.183985,4630.427988 7954.291759,4621.365966 7990.080744,4641.457077 7983.002257,4653.995009 7984.459632,4654.811642 7983.628468,4656.277536 7972.262284,4649.901143 7965.813891,4661.339698 7960.603269,4658.419978 7950.676058,4676.022042 7955.886667,4678.941751 7954.076849,4682.151213 7941.745781,4675.226789 7959.294354,4644.109429 7938.824459,4632.620888 7917.602775,4670.246107"/>
    <poly id="178221976" type="building.yes" color="255,230,230" fill="1" layer="-1.00" shape="7902.100335,4896.009485 7926.371866,4908.644358 7932.795751,4896.371311 7908.530875,4883.725301 7902.100335,4896.009485"/>
    <poly id="178221977" type="building.yes" color="255,230,230" fill="1" layer="-1.00" shape="7989.866863,4710.352311 8004.330019,4681.105628 8011.125818,4684.453067 7996.662631,4713.699729 7989.866863,4710.352311"/>
    <poly id="178221983" type="building.yes" color="255,230,230" fill="1" layer="-1.00" shape="7876.965007,4774.248881 7884.937800,4778.523125 7890.013097,4769.093815 7882.040292,4764.819563 7876.965007,4774.248881"/>
    <poly id="178221985" type="building.yes" color="255,230,230" fill="1" layer="-1.00" shape="8021.815001,4679.124155 8036.160762,4687.668157 8039.082446,4682.782343 8024.736676,4674.238333 8021.815001,4679.124155"/>
    <poly id="178221986" type="building.yes" color="255,230,230" fill="1" layer="-1.00" shape="7840.923592,4723.675882 7849.248711,4728.307141 7863.646969,4702.519649 7855.321820,4697.888365 7840.923592,4723.675882"/>
    <poly id="178221987" type="building.farm_auxiliary" color="255,230,230" fill="1" layer="-1.00" shape="7910.536051,4864.708078 7941.707083,4881.614014 7969.998233,4829.715433 7938.826960,4812.809313 7910.536051,4864.708078"/>
    <poly id="178221990" type="building.yes" color="255,230,230" fill="1" layer="-1.00" shape="7956.526289,4592.960147 7965.291809,4597.492849 7980.246870,4568.759363 7971.474679,4564.215488 7956.526289,4592.960147"/>
    <poly id="178221993" type="building.yes" color="255,230,230" fill="1" layer="-1.00" shape="7800.926043,4747.805195 7840.071625,4768.806582 7850.773892,4750.427937 7812.358665,4728.171600 7800.926043,4747.805195"/>
    <poly id="178221995" type="building.yes" color="255,230,230" fill="1" layer="-1.00" shape="7889.878871,4786.681713 7922.466491,4804.837865 7930.248758,4790.933668 7897.661071,4772.777464 7889.878871,4786.681713"/>
    <poly id="178221999" type="building.yes" color="255,230,230" fill="1" layer="-1.00" shape="7853.856748,4729.912160 7863.066822,4735.069031 7877.250003,4709.870532 7868.039896,4704.713633 7853.856748,4729.912160"/>
    <poly id="178222001" type="building.yes" color="255,230,230" fill="1" layer="-1.00" shape="8002.531559,4717.122150 8017.176419,4687.342080 8023.519665,4690.443383 8008.874775,4720.223434 8002.531559,4717.122150"/>
    <poly id="178222002" type="building.yes" color="255,230,230" fill="1" layer="-1.00" shape="7763.873972,4680.787235 7784.066586,4691.462065 7792.943800,4674.757549 7772.751169,4664.071558 7763.873972,4680.787235"/>
    <poly id="178222004" type="building.yes" color="255,230,230" fill="1" layer="-1.00" shape="7907.323395,4767.434004 7911.251537,4760.370758 7920.082385,4765.248449 7916.160866,4772.322833 7907.323395,4767.434004"/>
    <poly id="178222007" type="building.yes" color="255,230,230" fill="1" layer="-1.00" shape="7817.162808,4659.346074 7835.590467,4669.492842 7839.116492,4663.118040 7820.695482,4652.971280 7817.162808,4659.346074"/>
    <poly id="178222008" type="building.yes" color="255,230,230" fill="1" layer="-1.00" shape="7809.936686,4576.711153 7822.337935,4582.634217 7827.132748,4573.393103 7814.932630,4567.092401 7809.936686,4576.711153"/>
    <poly id="178222010" type="building.yes" color="255,230,230" fill="1" layer="-1.00" shape="8035.449320,4717.046546 8044.036459,4720.966975 8054.471866,4702.943946 8043.605501,4696.680187 8035.080284,4711.393997 8037.942623,4712.715637 8035.449320,4717.046546"/>
    <poly id="178222015" type="building.yes" color="255,230,230" fill="1" layer="-1.00" shape="7795.931142,4698.406900 7831.181825,4717.983430 7833.769223,4713.341210 7841.069565,4717.390818 7852.974254,4696.067801 7822.089121,4678.907465 7817.510879,4687.125767 7805.844912,4680.637604 7795.931142,4698.406900"/>
    <poly id="178222022" type="building.yes" color="255,230,230" fill="1" layer="-1.00" shape="7988.934635,4583.315311 7997.353461,4587.858121 7987.189094,4606.605225 7986.510275,4606.236000 7985.162659,4608.712648 7978.693828,4605.221640 7980.041442,4602.744990 7978.776958,4602.062454 7988.934635,4583.315311"/>
    <poly id="201825949" type="man_made.pipeline" color="255,230,230" fill="0" layer="-1.00" shape="-18527.805710,63851.649908 -18469.976982,63647.091449 -18397.686922,63534.763812 -18263.005076,63334.268019 -18197.739686,63253.190791 -18136.648375,63214.702871 -18007.696359,62985.824472 -17924.233543,62775.493139 -17806.677610,62535.254892 -17772.861533,62390.340548 -17760.459559,62217.072639 -17668.910837,61984.064142 -17600.357093,61814.204588 -17588.060555,61691.670855 -17308.809689,61160.360574 -17249.420553,60981.270473 -17084.661985,60801.937215 -16785.643455,60149.267925 -16552.463948,59978.297175 -15713.249219,59479.361235 -15614.986812,59477.751034 -15375.949348,59355.113682 -15021.357099,59165.185323 -14711.287984,58801.465010 -14552.888997,58747.963739 -14383.301079,58491.974029 -14377.707114,58393.336122 -14197.646542,58131.050407 -14062.306696,58031.675719 -13899.292033,57892.066014 -13828.883953,57745.813492 -13813.460470,57564.665121 -13579.972758,57297.061515 -13512.092623,57199.870447 -13512.218310,57112.167370 -13431.304512,56974.750873 -13357.661710,56839.381973 -13308.196257,56752.922605 -13274.469789,56640.540580 -13266.891625,56599.398735 -13224.903280,56456.844181 -13162.648933,56222.798893 -13099.716232,55929.520937 -12968.320447,55548.161059 -12901.342682,55336.431326 -12817.078107,55120.252422 -12794.259012,55000.956958 -12826.427529,54932.642651 -12740.354930,54588.830377 -12707.921184,54390.453841 -12665.496612,54182.085453 -12644.610231,54124.896217 -12625.045264,54086.889193 -12594.735281,54026.228442 -12542.529767,53948.863809 -12440.911715,53815.300495 -12413.084347,53771.521408 -12325.727164,53650.749870 -12307.675742,53634.618830 -12275.131709,53577.072730 -12271.261547,53535.269510 -12268.001353,53428.605043 -12263.205184,53309.333560 -12247.092529,53014.398837 -11969.423327,51881.115910 -11897.370384,51718.559955 -11829.708483,51420.345312 -11783.268483,51139.109557 -11741.130702,50804.153853 -11720.014699,50682.596670 -11665.448839,50660.578051 -11585.073938,50304.345964 -11760.696217,49005.505465 -11902.870431,48570.206844 -11919.989702,48467.014517 -11682.601673,47788.053110 -11678.546575,47602.798994 -11650.478582,47327.003451 -11664.875346,47114.889491 -11680.772476,46820.727093 -11696.619992,46576.050750 -11675.602491,46339.802617 -11658.748478,46184.184930 -11596.395407,46145.938432 -11581.065291,45885.632406 -11536.124189,45456.924577 -11475.634385,44963.084981 -11413.708859,44477.678193 -11378.373955,44344.617307 -11269.391735,44095.448333 -11122.335738,43581.573993 -10959.533287,43183.695011 -10965.479993,42882.202710 -10913.170460,42659.905249 -10852.275832,42525.369028 -10855.298239,42310.184907 -10706.530911,42022.657766 -10838.851311,41623.491731 -10685.301879,41500.282809 -10595.791653,41208.180693 -10585.983565,41049.569977 -10593.176291,40932.036593 -10574.824123,40842.874544 -10558.793262,40728.916068 -10559.304461,40668.650560 -10609.061661,40520.590159 -10448.760440,40116.914360 -10054.943822,39913.800093 -9793.869831,39638.831700 -9473.086764,39448.818760 -9044.384749,39200.689901 -8736.407152,38801.043825 -8627.125485,38613.984017 -8403.871486,38370.648317 -8365.162160,38237.031747 -8388.659859,38060.470233 -8404.091365,37665.961952 -8416.027720,37181.004327 -8383.172774,36738.218824 -8448.467735,36633.953016 -8578.169508,36503.345109 -8615.167010,36409.439796 -8619.895635,36132.845599 -8414.425185,35672.908778 -8166.708509,35312.050167 -8080.135295,34999.640479 -8153.044732,34596.171091 -8237.463834,34399.624499 -8224.193214,34339.666667 -8272.175736,34273.386209 -8280.882380,34140.798596 -8185.008787,33978.775249 -8185.608686,33898.640520 -8100.719340,33685.301598 -7990.981947,33420.626252 -8010.679782,33217.095694 -7929.226233,33044.100930 -7760.481207,32901.627722 -7732.183196,32779.956938 -7743.527464,32684.093413 -7848.558052,32141.985223 -7825.120143,32000.935040 -7769.586570,31672.207725 -7838.301367,31525.392293 -7889.008469,31472.381140 -7992.913561,31254.597671 -7831.860000,31062.850916 -7711.711105,30763.414755 -7637.719420,30644.895888 -7527.351638,30401.325743 -7942.361960,29771.602085 -8100.155644,29182.021695 -7920.598578,28850.213258 -7359.638972,28083.859898 -7169.213136,27944.610445 -7091.878268,27854.113405 -7066.880876,27767.091333 -6977.912261,27666.716447 -6740.641563,27543.135842 -6539.062034,27141.693442 -6359.993800,26871.989934 -6350.324704,26852.711059 -6134.404253,26462.045663 -5974.236598,26288.942368 -5874.415474,26028.823090 -5597.107244,25741.135402 -5464.104832,25631.867257 -4945.529420,24708.416978 -4928.623950,24377.075001 -4807.747868,24152.865583 -4821.096419,23988.843413 -4695.177140,23774.662766 -4615.931609,22916.001705 -4532.554284,22670.533828 -4525.625608,22486.262280 -4438.207138,22112.615725 -4431.339709,22059.719712 -4320.235840,21780.794664 -4301.297239,21764.929229 -4276.132575,21757.466566 -4261.851421,21744.357811 -4101.228493,21335.713897 -3984.096283,20800.024419 -3826.805101,20241.679429 -3525.999629,19843.458720 -2989.298246,19001.376761 -2992.600449,18900.937925 -2714.778615,18257.212007 -2646.783743,18156.957361 -2571.168495,17579.984259 -2494.467138,17460.070755 -2473.242383,17405.155109 -2027.052065,16928.056217 -1821.649759,16755.463703 -1587.531485,16599.331954 -1336.981016,16496.296564 -1228.678710,16467.775787 -1094.423465,16286.120602 -803.110593,16222.344567 -315.848648,15528.178185 -382.616867,15291.427127 -321.660583,15225.261061 -250.815328,15012.138218 -281.034510,14857.527159 -146.479832,14216.596839 -181.500634,14049.841354 -189.197296,13853.220423 -14.266071,13641.971856 198.202317,13164.054729 576.539125,12486.054130 847.237080,12124.278561 918.194003,12013.556230 944.180443,11942.988988 1114.870694,11812.686530 1383.935643,11575.492904 1641.659564,11310.938341 1925.453456,11192.492667 2135.815233,11015.920321 2318.722376,10718.499767 2417.524994,10552.551752 2451.979178,10505.004310 2461.993118,10491.184492 2856.888658,9785.798220 2942.827208,9536.854972 3312.628300,9086.058612 3522.624263,8856.192258 3736.835408,8587.819241 3990.994098,8106.394716 4096.467726,7979.578483 4589.345488,7018.213494 5133.345186,6407.014211 5432.489971,6113.366576 5747.318182,5914.050556 6145.054683,5925.950672 6231.528526,5873.877691 6424.635143,5652.392324 6614.191908,5287.228010 6984.284335,4845.439839 7195.850945,4592.934271 7381.099970,4248.557936 7525.517757,4088.481500 7688.246996,3906.437998 7786.529948,3777.812686 7877.840332,3626.506739 7959.759886,3413.252928 8053.582668,3078.110087 8106.144543,2638.434043 8147.631357,2468.744363 8290.449911,2234.250344 8354.645390,2171.243043 8571.434185,1829.071804 8769.603789,1511.090465 8828.027005,1262.242773 9023.482880,1004.247819 9093.704819,870.372409 9310.257399,473.155449 9451.057247,268.025435 9972.670652,143.364501 10451.377116,203.832301 11211.885956,-61.975823 11313.099897,-111.075629 11573.730287,-283.825737 11857.016453,-349.163676 12029.199056,-494.132846 12350.211160,-701.122277 12587.392639,-758.936843 12693.975750,-826.219174 12732.397206,-826.062091 12961.308529,-816.498094 13084.811262,-773.466249"/>
    <poly id="374062477" type="building.yes" color="255,230,230" fill="1" layer="-1.00" shape="4990.131952,5788.808542 5003.501850,5796.617889 5009.097110,5787.086690 4995.720530,5779.277311 4990.131952,5788.808542"/>
    <poly id="406057490" type="landuse.forest" color="140,196,107" fill="0" layer="-3.00" shape="4545.333446,4272.266978 4479.229792,4234.018858 4306.644368,4131.833034 4207.177466,4072.396277 4123.291741,4029.272815 4100.388014,4030.266094 3996.938490,4040.409963 3976.111062,4043.132880 3972.310417,4034.469230 3966.081389,4026.489830 3951.867165,4020.572742 3923.068539,4019.128379 3889.392079,4022.512512 3869.604697,4025.238228 3852.958115,4021.741185 3825.882394,4022.025598 3811.968416,4036.879507 3809.859763,4049.690525 3809.487639,4061.114815 3813.632938,4070.813705 3813.621366,4076.008938 3800.316193,4078.015150"/>
    <poly id="406279104" type="landuse.forest" color="140,196,107" fill="0" layer="-3.00" shape="4544.048904,5405.088155 4545.030129,5429.665131 4573.813488,5436.653392 4602.694201,5441.917720 4650.470326,5444.457541 4719.852726,5442.299769 4772.605460,5440.247195 4824.206908,5429.292569 4876.447879,5413.133671 4926.812439,5390.418227 4983.023725,5380.833894 5015.120136,5363.325122 5072.635140,5346.992336 5141.761189,5322.790743 5194.888555,5294.333542 5211.393944,5298.813925"/>
    <poly id="406414567" type="landuse.forest" color="140,196,107" fill="0" layer="-3.00" shape="5620.635550,5284.511300 5620.795009,5279.594560 5627.415908,5268.531541 5636.463021,5257.474866 5647.944834,5245.734833 5651.785452,5235.020577 5654.940484,5223.948538 5654.630971,5209.763625 5652.606564,5188.643488 5660.781584,5113.550314 5676.611688,5029.822123 5700.156691,4917.390044 5728.955085,4784.880555 5742.631960,4729.882259 5749.034906,4670.359304 5754.798543,4590.409587 5765.340006,4541.621857 5765.732310,4524.312740 5763.408895,4485.191901 5758.680474,4435.329318 5745.285141,4383.018716 5693.606521,4372.492386 5701.417774,4304.662889 5712.830851,4188.016251 5493.761171,4217.460621 5477.379153,4220.666814 5472.346176,4331.779167 5310.776103,4275.308042 5250.638366,4255.642725 5194.775540,4388.787606 5172.807162,4432.007701 5055.257439,4393.978545 5020.933070,4382.468126 5016.424083,4380.732603 5013.317867,4375.184766 5013.331603,4369.644667 5014.742307,4359.947368 5001.914433,4355.076303 4949.559337,4336.947036 4932.221476,4330.663319 4912.452618,4326.120277 4898.576931,4324.350725 4885.044490,4323.972651 4876.715438,4322.216768 4873.264890,4315.633577 4870.512034,4304.546568 4868.458295,4293.817266 4867.445424,4282.734521 4869.544099,4275.119197 4874.761814,4270.637575 4885.877926,4266.849031 4893.871592,4261.328510 4895.615128,4257.183253 4895.630419,4250.953423 4889.388782,4248.857775 4883.143729,4248.152723 4875.856970,4248.134862 4869.957741,4247.775542 4874.221167,4208.315327 4859.294076,4211.048844 4789.137073,4233.727950 4713.048904,4269.543222 4684.903623,4282.635890 4612.082982,4260.300394 4559.026251,4244.598948"/>
    <poly id="418786060" type="historic.monument" color="128,255,128" fill="1" layer="-1.00" shape="6212.079407,6252.646419 6219.930212,6257.295800 6232.792407,6259.478075 6249.253672,6254.172124 6257.502593,6242.424689 6258.979370,6226.375638 6252.219050,6215.310167 6242.240983,6203.868772 6236.888176,6199.571063 6222.240805,6197.039026 6210.063221,6205.204723 6203.599473,6214.821151 6202.488597,6228.724129 6204.601282,6240.855941 6212.079407,6252.646419"/>
    <poly id="424058973" type="waterway.river" color="181,209,209" fill="0" layer="-4.00" shape="8157.526659,3625.440620 8145.108263,3613.687262 8127.814792,3600.094199 8109.658079,3585.330396 8089.185190,3573.451871 8073.303798,3568.785497 8060.879153,3569.614472 8049.597245,3573.906847 8026.158662,3585.069906 8004.167937,3595.959457 7991.999666,3606.590342 7982.428274,3618.375164 7975.746700,3629.301231 7965.575631,3647.436480 7951.089024,3661.798214 7935.744188,3671.262434 7925.917504,3672.967526 7908.885476,3667.430409 7874.578031,3642.249385 7855.512978,3627.784125"/>
    <poly id="424058975" type="waterway.river" color="181,209,209" fill="0" layer="-4.00" shape="7855.512978,3627.784125 7810.876624,3593.916733 7745.150430,3544.432909 7714.603121,3516.661328 7705.991147,3498.190225 7694.263070,3460.686290 7675.983556,3389.142917 7671.997934,3370.964053"/>
    <poly id="692182906" type="building.farm_auxiliary" color="255,230,230" fill="1" layer="-1.00" shape="7762.346919,4545.727517 7760.097609,4546.621751 7758.272837,4548.207021 7757.079771,4550.317087 7756.652518,4552.696488 7757.012199,4554.978170 7758.079189,4557.039518 7759.760873,4558.646628 7761.857738,4559.643143 7764.170170,4559.906082 7766.444881,4559.423545 7768.441717,4558.250422 7769.960348,4556.497348 7770.840237,4554.341828 7770.987306,4552.028320 7770.387509,4549.790402 7769.026999,4547.794902 7767.084817,4546.353865 7764.767107,4545.634792 7762.346919,4545.727517"/>
    <poly id="717829910" type="natural.water" color="181,209,209" fill="1" layer="-4.00" shape="6122.718321,5571.198001 6094.110524,5574.335532 6084.818801,5572.163300 6079.830820,5565.730800 6064.267317,5504.346612 6059.654648,5489.705050 6063.249175,5484.007736 6071.471890,5484.741938 6101.432972,5511.222141 6124.213221,5548.373974 6129.897848,5560.871425 6128.457031,5566.218542 6122.718321,5571.198001"/>
    <poly id="717829911" type="natural.water" color="181,209,209" fill="1" layer="-4.00" shape="5961.063805,5589.663155 5949.274599,5586.783634 5947.519914,5575.008904 5956.208444,5533.659053 5963.056393,5515.132365 5978.779059,5517.666478 5985.449064,5562.984545 5988.975457,5582.607028 5978.934195,5591.502162 5961.063805,5589.663155"/>
    <poly id="717829912" type="natural.water" color="181,209,209" fill="1" layer="-4.00" shape="6018.232830,5736.764129 6005.351836,5741.012525 5994.292439,5732.071837 5981.475616,5712.413278 5971.154112,5694.196544 5966.214862,5669.575249 5999.133275,5659.317540 6006.992897,5661.129761 6031.133028,5725.395949 6026.112480,5731.089447 6018.232830,5736.764129"/>
</additional>
