<nodes>
  <node id="0" x="0" y="200" />
  <node id="1" x="2000" y="200" />
</nodes>
