<?xml version="1.0" encoding="UTF-8"?>

<!-- generated on Fri Jan 31 12:32:48 2020 by Eclipse SUMO netconvert Version 1.4.0
<configuration xmlns:xsi="http://www.w3.org/2001/XMLSchema-instance" xsi:noNamespaceSchemaLocation="http://sumo.dlr.de/xsd/netconvertConfiguration.xsd">

    <input>
        <node-files value="hello.nod.xml"/>
        <edge-files value="hello.edg.xml"/>
    </input>

    <output>
        <output-file value="hello.net.xml"/>
    </output>

    <report>
        <aggregate-warnings value="5"/>
    </report>

</configuration>
-->

<net version="1.3" junctionCornerDetail="5" limitTurnSpeed="5.50" xmlns:xsi="http://www.w3.org/2001/XMLSchema-instance" xsi:noNamespaceSchemaLocation="http://sumo.dlr.de/xsd/net_file.xsd">

    <location netOffset="250.00,0.00" convBoundary="0.00,0.00,501.00,200.00" origBoundary="-250.00,0.00,251.00,200.00" projParameter="!"/>

    <edge id=":2_0" function="internal">
        <lane id=":2_0_0" index="0" speed="13.89" length="0.10" shape="500.00,-1.60 500.00,-1.60"/>
    </edge>
    <edge id=":4_0" function="internal">
        <lane id=":4_0_0" index="0" speed="3.90" length="2.58" shape="497.80,198.40 498.50,198.30 499.00,198.00 499.30,197.50 499.40,196.80"/>
    </edge>

    <edge id="1to2" from="1" to="2" priority="-1">
        <lane id="1to2_0" index="0" speed="13.89" length="500.00" shape="0.00,-1.60 500.00,-1.60"/>
    </edge>
    <edge id="4to3" from="4" to="3" priority="-1">
        <lane id="4to3_0" index="0" speed="13.89" length="195.30" shape="499.40,196.80 499.40,1.50"/>
    </edge>
    <edge id="5to4" from="5" to="4" priority="-1">
        <lane id="5to4_0" index="0" speed="13.89" length="497.80" shape="0.00,198.40 497.80,198.40"/>
    </edge>
    <edge id="out" from="2" to="3" priority="-1">
        <lane id="out_0" index="0" speed="13.89" length="0.10" shape="500.00,-1.60 500.10,-1.60"/>
    </edge>

    <junction id="1" type="dead_end" x="0.00" y="0.00" incLanes="" intLanes="" shape="0.00,0.00 0.00,-3.20"/>
    <junction id="2" type="priority" x="500.00" y="0.00" incLanes="1to2_0" intLanes=":2_0_0" shape="500.00,0.00 500.00,-3.20 500.00,0.00">
        <request index="0" response="0" foes="0" cont="0"/>
    </junction>
    <junction id="3" type="dead_end" x="501.00" y="0.00" incLanes="4to3_0 out_0" intLanes="" shape="497.80,1.50 501.00,1.50 500.00,-3.20 500.00,0.00"/>
    <junction id="4" type="priority" x="501.00" y="200.00" incLanes="5to4_0" intLanes=":4_0_0" shape="501.00,196.80 497.80,196.80 497.80,200.00 499.58,199.64 500.20,199.20 500.64,198.58 500.91,197.78">
        <request index="0" response="0" foes="0" cont="0"/>
    </junction>
    <junction id="5" type="dead_end" x="0.00" y="200.00" incLanes="" intLanes="" shape="0.00,200.00 0.00,196.80"/>

    <connection from="1to2" to="out" fromLane="0" toLane="0" via=":2_0_0" dir="s" state="M"/>
    <connection from="5to4" to="4to3" fromLane="0" toLane="0" via=":4_0_0" dir="r" state="M"/>

    <connection from=":2_0" to="out" fromLane="0" toLane="0" dir="s" state="M"/>
    <connection from=":4_0" to="4to3" fromLane="0" toLane="0" dir="r" state="M"/>

</net>
