<edges>
    <edge from="1" id="1to2" to="2" />
    <edge from="2" id="out" to="3" />
    <edge from="5" id="5to4" to="4"/>
    <edge from="4" id="4to3" to="3" />
</edges>
