<edges>
    <edge id="0to1" from="0" to="1" />
</edges>
